Untitled
                    3D
 Schrodinger Suite 2022-3.
 77 84  0  0  1  0            999 V2000
   -5.0531    3.4551  -22.0679 C   0  0  0  0  0  0
   -5.3119    3.6430  -23.4050 C   0  0  0  0  0  0
   -3.8129    3.2240  -21.7180 C   0  0  0  0  0  0
   -2.9070    3.3740  -23.8760 C   0  0  0  0  0  0
   -2.7531    3.1279  -22.4551 C   0  0  0  0  0  0
   -4.2551    3.6131  -24.4070 C   0  0  0  0  0  0
   -3.4830    3.6560  -26.5990 C   0  0  0  0  0  0
    6.2160    3.0870  -21.2579 C   0  0  0  0  0  0
    6.0949    3.2350  -23.8081 C   0  0  0  0  0  0
   -4.4979    3.7400  -25.7440 C   0  0  0  0  0  0
    2.3010    3.7120  -23.8541 C   0  0  0  0  0  0
    1.4569    4.8040  -23.5580 C   0  0  0  0  0  0
    3.2270    6.0310  -22.8599 C   0  0  0  0  0  0
    3.6951    3.9280  -23.5289 C   0  0  0  0  0  0
    1.7810    2.5870  -24.5229 C   0  0  0  0  0  0
   -0.3620    3.3601  -24.4271 C   0  0  0  0  0  0
    0.1370    4.5880  -23.8200 C   0  0  0  0  0  0
   -1.8120    3.3401  -24.7929 C   0  0  0  0  0  0
    5.0959    7.3301  -22.1140 C   0  0  0  0  0  0
    4.3450    1.4410  -23.2399 C   0  0  0  0  0  0
    5.2760    1.0990  -22.0870 C   0  0  2  0  0  0
    6.8440    2.6710  -22.6060 C   0  0  2  0  0  0
    5.2299    2.0960  -20.9171 C   0  0  0  0  0  0
   -2.1291    3.4980  -26.2229 C   0  0  0  0  0  0
    5.3810    8.8790  -21.9860 C   0  0  1  0  0  0
    4.4129    9.5180  -20.9330 C   0  0  0  0  0  0
    3.9680   10.8150  -21.6010 C   0  0  2  0  0  0
    3.8979   10.4750  -23.0739 C   0  0  0  0  0  0
    6.3200   10.2810  -23.7110 C   0  0  0  0  0  0
    7.4170    9.4341  -23.0981 C   0  0  0  0  0  0
    6.8730    9.0930  -21.6580 C   0  0  0  0  0  0
   -1.4060    2.7380  -21.8470 C   0  0  0  0  0  0
   -0.3731    2.4080  -21.3340 C   0  0  0  0  0  0
   -0.7270    5.6160  -23.4790 F   0  0  0  0  0  0
    4.9360   11.7811  -21.3510 F   0  0  0  0  0  0
   -3.6091    2.9810  -20.3350 F   0  0  0  0  0  0
    1.9080    5.9700  -23.0190 N   0  0  0  0  0  0
    4.1431    5.0860  -23.0760 N   0  0  0  0  0  0
    0.4789    2.4740  -24.8389 N   0  0  0  0  0  0
    4.6340    2.8981  -23.7020 N   0  0  0  0  0  0
    6.6850    1.1940  -22.5580 N   0  3  1  0  0  0
    5.0790    9.5930  -23.2871 N   0  3  1  0  0  0
    3.7021    7.2380  -22.4330 O   0  0  0  0  0  0
   -3.6451    3.6720  -27.9900 O   0  0  0  0  0  0
   -5.7854    3.4815  -21.3868 H   0  0  0  0  0  0
   -6.2547    3.8048  -23.6984 H   0  0  0  0  0  0
    6.9992    3.1315  -20.4868 H   0  0  0  0  0  0
    5.7470    4.0766  -21.3617 H   0  0  0  0  0  0
    6.2149    4.3281  -23.8350 H   0  0  0  0  0  0
    6.5025    2.7986  -24.7319 H   0  0  0  0  0  0
   -5.4310    3.8656  -26.0798 H   0  0  0  0  0  0
    2.4054    1.8591  -24.8066 H   0  0  0  0  0  0
    5.7248    6.9062  -22.9107 H   0  0  0  0  0  0
    5.3289    6.8343  -21.1601 H   0  0  0  0  0  0
    4.5210    0.7440  -24.0725 H   0  0  0  0  0  0
    3.3005    1.3562  -22.9053 H   0  0  0  0  0  0
    4.9724    0.0910  -21.7679 H   0  0  0  0  0  0
    7.8831    3.0072  -22.7372 H   0  0  0  0  0  0
    5.5002    1.6233  -19.9613 H   0  0  0  0  0  0
    4.2448    2.5762  -20.8229 H   0  0  0  0  0  0
   -1.4044    3.4996  -26.9120 H   0  0  0  0  0  0
    3.5724    8.8338  -20.7451 H   0  0  0  0  0  0
    4.9579    9.6958  -19.9942 H   0  0  0  0  0  0
    3.0450   11.2761  -21.2196 H   0  0  0  0  0  0
    2.9490    9.9609  -23.2868 H   0  0  0  0  0  0
    3.9549   11.3998  -23.6668 H   0  0  0  0  0  0
    6.3862   11.3066  -23.3189 H   0  0  0  0  0  0
    6.4378   10.2983  -24.8045 H   0  0  0  0  0  0
    7.5684    8.5320  -23.7091 H   0  0  0  0  0  0
    8.3512   10.0138  -23.0624 H   0  0  0  0  0  0
    6.9750    9.9144  -20.9334 H   0  0  0  0  0  0
    7.2898    8.1705  -21.2276 H   0  0  0  0  0  0
    0.5741    2.1054  -20.8636 H   0  0  0  0  0  0
    7.3478    0.6969  -21.8344 H   0  0  0  0  0  0
   -4.6485    3.7888  -28.4255 H   0  0  0  0  0  0
    6.7780    0.7029  -23.5379 H   0  0  0  0  0  0
    4.8011    8.9358  -24.1243 H   0  0  0  0  0  0
  1  2  2  0  0  0
  1  3  1  0  0  0
  1 45  1  0  0  0
  2  6  1  0  0  0
  2 46  1  0  0  0
  3  5  2  0  0  0
  3 36  1  0  0  0
  4  5  1  0  0  0
  4  6  2  0  0  0
  4 18  1  0  0  0
  5 32  1  0  0  0
  6 10  1  0  0  0
  7 10  2  0  0  0
  7 24  1  0  0  0
  7 44  1  0  0  0
  8 22  1  0  0  0
  8 23  1  0  0  0
  8 47  1  0  0  0
  8 48  1  0  0  0
  9 22  1  0  0  0
  9 40  1  0  0  0
  9 49  1  0  0  0
  9 50  1  0  0  0
 10 51  1  0  0  0
 11 12  2  0  0  0
 11 14  1  0  0  0
 11 15  1  0  0  0
 12 17  1  0  0  0
 12 37  1  0  0  0
 13 37  2  0  0  0
 13 38  1  0  0  0
 13 43  1  0  0  0
 14 38  2  0  0  0
 14 40  1  0  0  0
 15 39  2  0  0  0
 15 52  1  0  0  0
 16 17  2  0  0  0
 16 18  1  0  0  0
 16 39  1  0  0  0
 17 34  1  0  0  0
 18 24  2  0  0  0
 19 25  1  0  0  0
 19 43  1  0  0  0
 19 53  1  0  0  0
 19 54  1  0  0  0
 20 21  1  0  0  0
 20 40  1  0  0  0
 20 55  1  0  0  0
 20 56  1  0  0  0
 21 23  1  0  0  0
 21 41  1  0  0  0
 21 57  1  0  0  0
 22 41  1  0  0  0
 22 58  1  0  0  0
 23 59  1  0  0  0
 23 60  1  0  0  0
 24 61  1  0  0  0
 25 26  1  0  0  0
 25 31  1  0  0  0
 25 42  1  0  0  0
 26 27  1  0  0  0
 26 62  1  0  0  0
 26 63  1  0  0  0
 27 28  1  0  0  0
 27 35  1  0  0  0
 27 64  1  0  0  0
 28 42  1  0  0  0
 28 65  1  0  0  0
 28 66  1  0  0  0
 29 30  1  0  0  0
 29 42  1  0  0  0
 29 67  1  0  0  0
 29 68  1  0  0  0
 30 31  1  0  0  0
 30 69  1  0  0  0
 30 70  1  0  0  0
 31 71  1  0  0  0
 31 72  1  0  0  0
 32 33  3  0  0  0
 33 73  1  0  0  0
 41 74  1  0  0  0
 41 76  1  0  0  0
 42 77  1  0  0  0
 44 75  1  0  0  0
M  CHG  2  41   1  42   1
M  END
> <s_m_entry_id>
2

> <s_m_entry_name>
Mirati-central-6-6-ring-fragments.1

> <s_m_Source_Path>
/home/julia/Documents/BSC/pc_bsc/julia/results/KRAS/rescore_fragments_KRAS_Soumya/glide-dock_SP_rescore_Mirati_central-6-6

> <s_m_Source_File>
glide-dock_SP_rescore_Mirati_central-6-6_pv.maegz

> <i_m_Source_File_Index>
2

> <s_m_job_name>
epik_central-6-6

> <s_epik_input>
W0NIXSNDYzFjKEYpW2NIXVtjSF1jKGMxMilbY0hdYyhbT0hdKVtjSF1jMi1jKG5bY0hdMyljKEYpYyhjMzQpbmMobmM0TihbQ0gyXVtDQEhdNTYpW0NIMl1bQ0BIXShbTkhdNilbQ0gyXVtDSDJdNSlPW0NIMl1bQ0BAXTc4TihbQ0gyXVtDQEhdKEYpW0NIMl03KVtDSDJdW0NIMl1bQ0gyXTg=

> <s_epik_cmdline>
J2VwaWtfYXBwJywgJy1pbWFlJywgJy9zaGFyZWQvd29yay9sZGlhei9HTV9TdXBlcmx1bWluYWwvS1JBU19HMTJEL2VwaWtfY2VudHJhbC02LTYvZXBpa19jZW50cmFsLTYtNi5tYWVneicsICctb21hZScsICdlcGlrX2NlbnRyYWwtNi02LW91dC5tYWVneicsICctbnQnLCAnLW1zJywgJzEnLCAnLXBoJywgJzYuOTAnLCAnLXBodCcsICcwLjUwJywgJy1zJywgJ3dhdGVyJw==

> <r_epik_Ionization_Penalty>
  0.0563

> <r_epik_Ionization_Penalty_Charging>
  0.0523

> <r_epik_Ionization_Penalty_Neutral>
  0.0040

> <r_epik_State_Penalty>
  0.0000

> <r_epik_Charging_Adjusted_Penalty>
0.0523342448120783

> <i_epik_Tot_Q>
2

> <i_epik_Tot_abs_Q>
2

> <r_lp_tautomer_probability>
1

> <MW_cresset>
601

> <#Atoms_cresset>
44

> <SlogP_cresset>
5.3

> <TPSA_cresset>
87

> <Rof5_cresset>
2

> <_cresset_fieldpoints>
    -5      -0.412109       0.736065     -25.566504     -6.7535
    -5       4.198764       8.237833     -24.819740     -8.5630
    -5       3.943510      14.261609     -20.431293     -2.9390
    -5       0.984361       7.677646     -22.575424    -10.9703
    -5      -2.457585       5.133837     -28.926018     -4.2575
    -5       5.292418      13.734930     -23.373661     -3.1547
    -5      -3.061613       6.494560     -24.789396     -6.2039
    -5       7.687469      12.558582     -21.399208     -2.8862
    -5       7.083508       0.258016     -24.368179     -3.4930
    -5      -2.568389       2.213581     -29.031340     -4.1267
    -6      -7.546129       3.966524     -25.672684      5.0257
    -6      -6.388730       3.822112     -28.118774      7.3762
    -6       7.858477       5.771778     -22.182980      3.9292
    -6       8.402904      -0.042779     -21.063107      8.6512
    -6       2.615610      -0.493196     -24.603325      3.1063
    -6       2.361678       0.653186     -20.759716      3.7737
    -7       3.667812       4.952518     -19.909138     -2.7665
    -7      -3.766752       0.270526     -24.015051     -2.5382
    -7      -1.502603       5.633320     -20.392050     -2.3755
    -7       7.948397       5.798080     -22.271751     -3.1796
    -7       8.084869       0.606008     -20.014523     -1.9402
    -7       6.150476       7.607778     -18.793282     -1.9753
    -7       0.943621       4.847268     -27.089912     -2.4533
    -7       4.666569       7.898440     -25.253288     -3.1028
    -7       4.464800       2.217004     -26.461704     -2.3746
    -7      -3.695481       6.586329     -22.877689     -2.6638
    -7       0.988373      -0.044509     -22.875368     -2.2060
    -7       7.041135       0.111809     -24.878658     -1.9963
    -7       2.378584       0.449177     -20.584099     -2.2888
    -7       3.141958      11.195379     -18.407557     -1.3448
    -7       3.185542       6.431355     -19.594534     -2.1344
    -7       6.730698      11.075015     -18.657457     -1.5325
    -7       2.238440      13.380726     -22.791615     -1.2867
    -7       1.028278      11.967966     -22.906948     -1.2118
    -7       1.170370       8.376410     -22.034363     -2.8580
    -7       5.300921       6.468797     -25.390608     -2.6210
    -7       8.183306      12.314743     -21.559595     -1.8981
    -7       2.121354       6.843366     -25.949825     -1.8835
    -7       1.214193       8.197368     -24.157673     -2.3564
    -7       5.345582      13.536554     -24.171566     -1.5288
    -7       2.249385       4.135825     -20.353992     -3.0946
    -7      -1.006781       0.202238     -23.937138     -2.6175
    -7      -1.803190       4.164914     -29.520634     -1.2150
    -7      -5.055538       5.992526     -28.317375     -1.2180
    -7      -5.208935       1.381372     -28.186947     -1.2495
    -8      -4.005899       3.407042     -23.017056      7.1749
    -8      -3.165881       3.537894     -25.218716      6.8782
    -8      -1.815546       3.316278     -23.445984      5.6903
    -8       5.649771       2.448315     -21.746387      5.3923
    -8       6.657152       9.492256     -22.422211      5.3440
    -8       4.603106      10.348461     -21.589060      5.7103
    -8       1.074541       3.859304     -23.944126      5.3274
    -8      -1.229916       4.052443     -23.917549      5.5061
    -8       0.047735       4.475318     -23.806042      5.0919

> <s_i_glide_gridfile>
glide-grid_7RPZ_constraints

> <i_i_glide_lignum>
1

> <i_i_glide_rotatable_bonds>
7

> <r_i_docking_score>
-12.9554288013958

> <r_i_glide_ligand_efficiency>
-0.294441563668087

> <r_i_glide_ligand_efficiency_sa>
-1.03948128283524

> <r_i_glide_ligand_efficiency_ln>
-2.70796724058476

> <r_i_glide_gscore>
-12.9554288013958

> <r_i_glide_lipo>
-4.07568305242094

> <r_i_glide_hbond>
-1.00029817851663

> <r_i_glide_metal>
0

> <r_i_glide_rewards>
-0.915080887414583

> <r_i_glide_evdw>
-65.6609878540039

> <r_i_glide_ecoul>
-24.5517730712891

> <r_i_glide_erotb>
0.228365962771295

> <r_i_glide_esite>
-0.226917292421439

> <r_i_glide_emodel>
0

> <r_i_glide_energy>
-90.212760925293

> <r_i_glide_einternal>
0

> <i_i_glide_confnum>
1

> <i_i_glide_posenum>
1

> <r_i_glide_eff_state_penalty>
0

> <s_m_subgroup_title>
glide-dock_SP_rescore_Mirati_central-6-6_pv

> <s_m_subgroupid>
glide-dock_SP_rescore_Mirati_central-6-6_pv

> <b_m_subgroup_collapsed>
0

$$$$
[Fm]c1cc([Es])c2c(n1)nc([Cf])nc2N
                    3D
 Schrodinger Suite 2022-3.
 79 86  0  0  1  0            999 V2000
   -5.0589    3.4381  -22.1800 C   0  0  0  0  0  0
   -5.2527    3.5918  -23.5095 C   0  0  0  0  0  0
   -3.7732    3.2493  -21.6767 C   0  0  0  0  0  0
   -2.8387    3.4444  -23.9124 C   0  0  0  0  0  0
   -2.6747    3.2391  -22.5075 C   0  0  0  0  0  0
   -4.1566    3.5804  -24.3866 C   0  0  0  0  0  0
   -3.4180    3.7132  -26.6547 C   0  0  0  0  0  0
    6.5445    3.2762  -21.4335 C   0  0  0  0  0  0
    5.9911    3.0362  -23.9584 C   0  0  0  0  0  0
   -4.4361    3.7070  -25.7550 C   0  0  0  0  0  0
   -1.7996    3.5077  -24.8811 C   0  0  0  0  0  0
    4.9037    7.5190  -22.2897 C   0  0  0  0  0  0
    4.3155    1.4960  -22.9957 C   0  0  0  0  0  0
    5.3386    1.1991  -21.8777 C   0  0  2  0  0  0
    6.9358    2.6517  -22.7900 C   0  0  2  0  0  0
    5.4282    2.3646  -20.8742 C   0  0  0  0  0  0
   -2.0966    3.6169  -26.2101 C   0  0  0  0  0  0
    5.2389    9.0152  -22.1040 C   0  0  1  0  0  0
    4.3983    9.6927  -20.9964 C   0  0  0  0  0  0
    3.9143   11.0073  -21.6274 C   0  0  2  0  0  0
    3.8706   10.6894  -23.1329 C   0  0  0  0  0  0
    6.1821   10.4168  -23.8168 C   0  0  0  0  0  0
    7.3147    9.5593  -23.2460 C   0  0  0  0  0  0
    6.7541    9.2002  -21.8663 C   0  0  0  0  0  0
   -1.4039    2.9695  -21.8747 C   0  0  0  0  0  0
   -0.3385    2.7213  -21.3312 C   0  0  0  0  0  0
    4.8418   12.0138  -21.3786 F   0  0  0  0  0  0
   -3.6232    3.0637  -20.3549 F   0  0  0  0  0  0
    4.5474    2.7750  -23.7124 N   0  0  0  0  0  0
    6.6612    1.2452  -22.5038 N   0  3  1  0  0  0
    4.9604    9.7295  -23.3610 N   0  3  1  0  0  0
    3.5165    7.2925  -22.6484 O   0  0  0  0  0  0
   -3.6815    3.8323  -27.9840 O   0  0  0  0  0  0
   -5.8418    3.4480  -21.5586 H   0  0  0  0  0  0
   -6.1786    3.7123  -23.8662 H   0  0  0  0  0  0
    7.4223    3.2932  -20.7709 H   0  0  0  0  0  0
    6.1854    4.3037  -21.5928 H   0  0  0  0  0  0
    6.0852    4.1121  -24.1671 H   0  0  0  0  0  0
    6.2662    2.4631  -24.8561 H   0  0  0  0  0  0
   -5.3830    3.7881  -26.0682 H   0  0  0  0  0  0
    5.5300    7.0996  -23.0909 H   0  0  0  0  0  0
    5.0997    6.9801  -21.3510 H   0  0  0  0  0  0
    4.3518    0.6945  -23.7482 H   0  0  0  0  0  0
    3.3052    1.5480  -22.5638 H   0  0  0  0  0  0
    5.0905    0.2371  -21.4054 H   0  0  0  0  0  0
    7.9626    2.9051  -23.0924 H   0  0  0  0  0  0
    5.7075    2.0179  -19.8683 H   0  0  0  0  0  0
    4.4863    2.9301  -20.8187 H   0  0  0  0  0  0
   -1.3549    3.6493  -26.8806 H   0  0  0  0  0  0
    3.5589    9.0374  -20.7206 H   0  0  0  0  0  0
    5.0300    9.8704  -20.1136 H   0  0  0  0  0  0
    2.9908   11.4300  -21.2049 H   0  0  0  0  0  0
    2.8923   10.2558  -23.3878 H   0  0  0  0  0  0
    4.0225   11.6149  -23.7077 H   0  0  0  0  0  0
    6.2592   11.4389  -23.4176 H   0  0  0  0  0  0
    6.2603   10.4447  -24.9137 H   0  0  0  0  0  0
    7.4743    8.6845  -23.8935 H   0  0  0  0  0  0
    8.2383   10.1550  -23.2003 H   0  0  0  0  0  0
    6.9148   10.0058  -21.1347 H   0  0  0  0  0  0
    7.1817    8.2633  -21.4798 H   0  0  0  0  0  0
    0.6209    2.4978  -20.8418 H   0  0  0  0  0  0
    7.4092    0.8315  -21.8114 H   0  0  0  0  0  0
   -4.7216    3.9081  -28.3339 H   0  0  0  0  0  0
    0.0282    4.6572  -23.9894 N   0  0  0  0  0  0
    0.3539    2.4695  -24.9660 N   0  0  0  0  0  0
    1.8098    5.9630  -23.2701 N   0  0  0  0  0  0
    2.4133    1.5444  -25.2043 N   0  0  0  0  0  0
    3.6141    3.8201  -23.6523 C   0  0  0  0  0  0
    3.1264    6.0858  -23.0380 C   0  0  0  0  0  0
    1.3693    4.7593  -23.7553 C   0  0  0  0  0  0
    1.6607    2.5814  -24.6980 C   0  0  0  0  0  0
   -0.3848    3.5307  -24.5816 C   0  0  0  0  0  0
    2.2478    3.6815  -24.0324 C   0  0  0  0  0  0
    4.0175    5.0367  -23.1892 C   0  0  0  0  0  0
    1.9195    0.7053  -25.7163 H   0  0  0  0  0  0
    3.5080    1.5555  -25.0966 H   0  0  0  0  0  0
    4.9726    5.1776  -22.9519 H   0  0  0  0  0  0
    6.6498    0.6506  -23.4292 H   0  0  0  0  0  0
    4.6487    9.0211  -24.1427 H   0  0  0  0  0  0
  1  2  2  0  0  0
  1  3  1  0  0  0
  1 34  1  0  0  0
  2  6  1  0  0  0
  2 35  1  0  0  0
  3  5  2  0  0  0
  3 28  1  0  0  0
  4  5  1  0  0  0
  4  6  2  0  0  0
  4 11  1  0  0  0
  5 25  1  0  0  0
  6 10  1  0  0  0
  7 10  2  0  0  0
  7 17  1  0  0  0
  7 33  1  0  0  0
  8 15  1  0  0  0
  8 16  1  0  0  0
  8 36  1  0  0  0
  8 37  1  0  0  0
  9 15  1  0  0  0
  9 29  1  0  0  0
  9 38  1  0  0  0
  9 39  1  0  0  0
 10 40  1  0  0  0
 11 17  2  0  0  0
 11 72  1  0  0  0
 12 18  1  0  0  0
 12 32  1  0  0  0
 12 41  1  0  0  0
 12 42  1  0  0  0
 13 14  1  0  0  0
 13 29  1  0  0  0
 13 43  1  0  0  0
 13 44  1  0  0  0
 14 16  1  0  0  0
 14 30  1  0  0  0
 14 45  1  0  0  0
 15 30  1  0  0  0
 15 46  1  0  0  0
 16 47  1  0  0  0
 16 48  1  0  0  0
 17 49  1  0  0  0
 18 19  1  0  0  0
 18 24  1  0  0  0
 18 31  1  0  0  0
 19 20  1  0  0  0
 19 50  1  0  0  0
 19 51  1  0  0  0
 20 21  1  0  0  0
 20 27  1  0  0  0
 20 52  1  0  0  0
 21 31  1  0  0  0
 21 53  1  0  0  0
 21 54  1  0  0  0
 22 23  1  0  0  0
 22 31  1  0  0  0
 22 55  1  0  0  0
 22 56  1  0  0  0
 23 24  1  0  0  0
 23 57  1  0  0  0
 23 58  1  0  0  0
 24 59  1  0  0  0
 24 60  1  0  0  0
 25 26  3  0  0  0
 26 61  1  0  0  0
 29 68  1  0  0  0
 30 62  1  0  0  0
 30 78  1  0  0  0
 31 79  1  0  0  0
 32 69  1  0  0  0
 33 63  1  0  0  0
 64 70  1  0  0  0
 64 72  2  0  0  0
 65 71  2  0  0  0
 65 72  1  0  0  0
 66 69  1  0  0  0
 66 70  2  0  0  0
 67 71  1  0  0  0
 67 75  1  0  0  0
 67 76  1  0  0  0
 68 73  2  0  0  0
 68 74  1  0  0  0
 69 74  2  0  0  0
 70 73  1  0  0  0
 71 73  1  0  0  0
 74 77  1  0  0  0
M  CHG  2  30   1  31   1
M  END
> <s_m_entry_id>
3

> <s_m_entry_name>
Mirati-central-6-6-ring-fragments.110

> <s_m_Source_Path>
/home/julia/Documents/BSC/pc_bsc/julia/results/KRAS/rescore_fragments_KRAS_Soumya/glide-dock_SP_rescore_Mirati_central-6-6

> <s_m_Source_File>
glide-dock_SP_rescore_Mirati_central-6-6_pv.maegz

> <i_m_Source_File_Index>
3

> <s_m_job_name>
epik_central-6-6

> <s_epik_input>
W0NIXSNDYzFjKEYpW2NIXVtjSF1jKGMxMilbY0hdYyhbT0hdKVtjSF1jMi1jKG4zKW5jKFtOSDJdKWMoYzM0KWMoTihbQ0gyXVtDQEhdNTYpW0NIMl1bQ0BIXShbTkhdNilbQ0gyXVtDSDJdNSlbY0hdYyhuNClPW0NIMl1bQ0BAXTc4TihbQ0gyXVtDQEhdKEYpW0NIMl03KVtDSDJdW0NIMl1bQ0gyXTg=

> <s_epik_cmdline>
J2VwaWtfYXBwJywgJy1pbWFlJywgJy9zaGFyZWQvd29yay9sZGlhei9HTV9TdXBlcmx1bWluYWwvS1JBU19HMTJEL2VwaWtfY2VudHJhbC02LTYvZXBpa19jZW50cmFsLTYtNi5tYWVneicsICctb21hZScsICdlcGlrX2NlbnRyYWwtNi02LW91dC5tYWVneicsICctbnQnLCAnLW1zJywgJzEnLCAnLXBoJywgJzYuOTAnLCAnLXBodCcsICcwLjUwJywgJy1zJywgJ3dhdGVyJw==

> <r_epik_Ionization_Penalty>
  0.0419

> <r_epik_Ionization_Penalty_Charging>
  0.0326

> <r_epik_Ionization_Penalty_Neutral>
  0.0093

> <r_epik_State_Penalty>
  0.0285

> <r_epik_Charging_Adjusted_Penalty>
0.0610911575884923

> <i_epik_Tot_Q>
2

> <i_epik_Tot_abs_Q>
2

> <MW_cresset>
598

> <#Atoms_cresset>
44

> <SlogP_cresset>
4.5

> <TPSA_cresset>
113

> <Rof5_cresset>
1

> <_cresset_fieldpoints>
    -5      -0.797230       6.279575     -23.341894    -17.1560
    -5      -0.893239       0.752677     -24.346521     -7.7238
    -5       3.505140      14.361488     -20.512457     -3.0780
    -5       5.167615      13.983187     -23.393833     -3.1019
    -5       7.591834      12.729171     -21.488853     -2.6243
    -6      -6.451267       3.893086     -27.994164      7.0885
    -6      -7.483836       3.797917     -25.871935      4.8897
    -6       7.446937       5.836244     -23.011395      7.1756
    -6       8.563834       0.144474     -21.143431      9.6482
    -6       4.017847      -0.199947     -25.958364      7.8736
    -7      -8.447478       3.544069     -22.413937     -1.0307
    -7      -3.439079       0.280823     -24.002975     -2.5194
    -7       7.761789       5.955948     -22.959061     -3.4738
    -7       8.166738       0.686517     -20.008692     -1.9382
    -7       4.404968       3.319932     -26.785761     -2.4169
    -7       6.794348      -0.247757     -24.617287     -2.0474
    -7       3.925447       5.255000     -19.856728     -2.7584
    -7       1.002738       0.140625     -22.802811     -2.4652
    -7       2.361080       4.327488     -20.347485     -2.9762
    -7       3.104792      11.224921     -18.419132     -1.3406
    -7       2.506395       1.098617     -20.093578     -2.2388
    -7       1.019852       4.915033     -27.199368     -2.1667
    -7       6.125416       7.611203     -19.014074     -2.0259
    -7       1.232872       8.637335     -22.006943     -2.5981
    -7       2.051688      13.455383     -22.861065     -1.2935
    -7       5.396595      13.751357     -24.185230     -1.5114
    -7       8.091641      12.430483     -21.661617     -1.9182
    -7       4.432856       8.128775     -25.391884     -3.1919
    -7       6.874856      11.247612     -18.889700     -1.5388
    -7      -1.429188       6.301044     -22.771435     -3.0404
    -7       5.255898       0.427634     -26.166380     -1.8300
    -7      -1.764039       4.020003     -29.563717     -1.1933
    -7      -5.210801       6.175757     -27.955839     -1.2418
    -7      -5.526666       1.702890     -28.253595     -1.2372
    -7      -0.882116       0.374083     -23.916952     -2.8392
    -8      -3.948601       3.420951     -23.037764      7.1592
    -8      -3.127898       3.590738     -25.248152      7.0031
    -8       6.545077       9.630976     -22.568777      5.3621
    -8       4.514187      10.554351     -21.682228      5.6799
    -8       2.944660       4.577125     -23.557785      5.1407
    -8       5.797168       2.636085     -21.826210      5.2678

> <s_i_glide_gridfile>
glide-grid_7RPZ_constraints

> <i_i_glide_lignum>
110

> <i_i_glide_rotatable_bonds>
7

> <r_i_docking_score>
-12.6952292981533

> <r_i_glide_ligand_efficiency>
-0.288527938594394

> <r_i_glide_ligand_efficiency_sa>
-1.01860412642691

> <r_i_glide_ligand_efficiency_ln>
-2.65357986818677

> <r_i_glide_gscore>
-12.7237292981533

> <r_i_glide_lipo>
-3.69777952844067

> <r_i_glide_hbond>
-1.02295659132934

> <r_i_glide_metal>
0

> <r_i_glide_rewards>
-0.802786486112323

> <r_i_glide_evdw>
-64.0931167602539

> <r_i_glide_ecoul>
-27.1039371490479

> <r_i_glide_erotb>
0.233950608648289

> <r_i_glide_esite>
-0.229501462906576

> <r_i_glide_emodel>
0

> <r_i_glide_energy>
-91.1970539093018

> <r_i_glide_einternal>
0

> <i_i_glide_confnum>
1

> <i_i_glide_posenum>
1

> <r_i_glide_eff_state_penalty>
0.0285

> <Total Formal Charge>
0

> <Setting>
[Custom]

> <rmsDist>
0.11

> <rmsAng>
3.4

> <Frag ID>
593005

> <Attachment Point 1 Type>
Car

> <Attachment Point 2 Type>
Car

> <Attachment Point 3 Type>
Car

> <Unstable>
false

> <Database>
ChEMBL_veryrare

> <Attachment Types>
Csp3|Ntri|Csp3,Car

> <Frequency>
2

> <Parent Title>
CHEMBL517061

> <TorsFreq Frag>
High

> <Strain 1>
1.8

> <TorsFreq 1>
High

> <Strain 2>
0

> <TorsFreq 2>
Medium

> <Strain 3>
1.1

> <TorsFreq 3>
High

> <BIF>
0.499

> <Cluster SMILES>
[Fm]c1cc([Es])c2cnc([Cf])nc2n1

> <Cluster Number>
18

> <Rank>
109

> <Favorite_cresset>
false

> <BIF%>
50

> <Score>
0.911

> <Field Score>
0.857

> <Shape Score>
0.965

> <Docking Score>
0

> <Flexibility_cresset>
5.5

> <#RB_cresset>
6

> <Radial Plot_cresset>
0.285

> <2D Sim_cresset>
0.758

> <Fragment SMILES>
[Fm]c1cc([Es])c2c(n1)nc([Cf])nc2N

> <s_m_subgroup_title>
glide-dock_SP_rescore_Mirati_central-6-6_pv

> <s_m_subgroupid>
glide-dock_SP_rescore_Mirati_central-6-6_pv

> <b_m_subgroup_collapsed>
0

$$$$
[Fm]c1nc([Es])c2ccc([Cf])c(F)c2n1
                    3D
 Schrodinger Suite 2022-3.
 79 86  0  0  1  0            999 V2000
   -5.0709    3.4501  -22.1300 C   0  0  0  0  0  0
   -5.2556    3.6062  -23.4616 C   0  0  0  0  0  0
   -3.7963    3.1923  -21.6307 C   0  0  0  0  0  0
   -2.8479    3.3682  -23.8682 C   0  0  0  0  0  0
   -2.7024    3.1360  -22.4654 C   0  0  0  0  0  0
   -4.1601    3.5412  -24.3419 C   0  0  0  0  0  0
   -3.4171    3.6167  -26.6139 C   0  0  0  0  0  0
    6.3194    3.1056  -21.2337 C   0  0  0  0  0  0
    6.0472    3.2051  -23.7707 C   0  0  0  0  0  0
   -4.4324    3.6487  -25.7127 C   0  0  0  0  0  0
   -1.8048    3.4310  -24.8365 C   0  0  0  0  0  0
    4.9931    7.3611  -22.1438 C   0  0  0  0  0  0
    4.3566    1.4493  -23.1861 C   0  0  0  0  0  0
    5.3294    1.0199  -22.0619 C   0  0  2  0  0  0
    6.9037    2.6763  -22.5961 C   0  0  2  0  0  0
    5.2748    2.0179  -20.8856 C   0  0  0  0  0  0
   -2.0965    3.5238  -26.1685 C   0  0  0  0  0  0
    5.3380    8.8577  -21.9668 C   0  0  1  0  0  0
    4.4773    9.5600  -20.8873 C   0  0  0  0  0  0
    3.9966   10.8582  -21.5540 C   0  0  2  0  0  0
    3.9607   10.4965  -23.0484 C   0  0  0  0  0  0
    6.2843   10.2332  -23.6972 C   0  0  0  0  0  0
    7.4197    9.4019  -23.0928 C   0  0  0  0  0  0
    6.8485    9.0488  -21.7157 C   0  0  0  0  0  0
   -1.4539    2.7726  -21.8383 C   0  0  0  0  0  0
   -0.4049    2.4448  -21.3077 C   0  0  0  0  0  0
    4.9249   11.8706  -21.3328 F   0  0  0  0  0  0
   -3.6523    2.9771  -20.3126 F   0  0  0  0  0  0
    4.6246    2.8529  -23.5772 N   0  0  0  0  0  0
    6.6989    1.2287  -22.5340 N   0  3  1  0  0  0
    5.0651    9.5439  -23.2418 N   0  3  1  0  0  0
    3.6096    7.1995  -22.5163 O   0  0  0  0  0  0
   -3.6841    3.7012  -27.9453 O   0  0  0  0  0  0
   -5.8527    3.5010  -21.5081 H   0  0  0  0  0  0
   -6.1756    3.7683  -23.8198 H   0  0  0  0  0  0
    7.1253    3.1487  -20.4863 H   0  0  0  0  0  0
    5.8554    4.0983  -21.3301 H   0  0  0  0  0  0
    6.1387    4.2998  -23.8274 H   0  0  0  0  0  0
    6.4000    2.7584  -24.7120 H   0  0  0  0  0  0
   -5.3769    3.7436  -26.0256 H   0  0  0  0  0  0
    5.6271    6.9295  -22.9323 H   0  0  0  0  0  0
    5.1717    6.8292  -21.1976 H   0  0  0  0  0  0
    4.4957    0.7965  -24.0605 H   0  0  0  0  0  0
    3.3205    1.3647  -22.8265 H   0  0  0  0  0  0
    5.1111   -0.0244  -21.7938 H   0  0  0  0  0  0
    7.9470    2.9867  -22.7545 H   0  0  0  0  0  0
    5.5477    1.5387  -19.9338 H   0  0  0  0  0  0
    4.2812    2.4804  -20.7916 H   0  0  0  0  0  0
   -1.3537    3.5501  -26.8384 H   0  0  0  0  0  0
    3.6359    8.9087  -20.6083 H   0  0  0  0  0  0
    5.0950    9.7615  -19.9997 H   0  0  0  0  0  0
    3.0727   11.2939  -21.1459 H   0  0  0  0  0  0
    2.9886   10.0433  -23.2927 H   0  0  0  0  0  0
    4.1022   11.4068  -23.6495 H   0  0  0  0  0  0
    6.3448   11.2650  -23.3207 H   0  0  0  0  0  0
    6.3759   10.2369  -24.7934 H   0  0  0  0  0  0
    7.6047    8.5202  -23.7240 H   0  0  0  0  0  0
    8.3330   10.0127  -23.0393 H   0  0  0  0  0  0
    6.9994    9.8590  -20.9872 H   0  0  0  0  0  0
    7.2754    8.1155  -21.3198 H   0  0  0  0  0  0
    0.5406    2.1493  -20.8294 H   0  0  0  0  0  0
    7.4044    0.7627  -21.8303 H   0  0  0  0  0  0
   -4.7248    3.7743  -28.2940 H   0  0  0  0  0  0
   -0.7105    5.6914  -23.7625 F   0  0  0  0  0  0
    1.8949    5.9512  -23.1822 N   0  0  0  0  0  0
    4.1410    5.0419  -23.0713 N   0  3  0  0  0  0
    1.4711    4.7553  -23.6707 C   0  0  0  0  0  0
   -0.3922    3.4882  -24.5199 C   0  0  0  0  0  0
    3.6740    3.8628  -23.5127 C   0  0  0  0  0  0
    1.7879    2.4948  -24.4575 C   0  0  0  0  0  0
    3.2082    6.0174  -22.9363 C   0  0  0  0  0  0
    2.3254    3.6676  -23.8807 C   0  0  0  0  0  0
    0.1041    4.6429  -23.9848 C   0  0  0  0  0  0
    0.4753    2.4052  -24.7680 C   0  0  0  0  0  0
    2.3856    1.7175  -24.6486 H   0  0  0  0  0  0
    0.1187    1.5650  -25.1768 H   0  0  0  0  0  0
    5.2116    5.1608  -22.8482 H   0  0  0  0  0  0
    6.8176    0.7729  -23.5280 H   0  0  0  0  0  0
    4.7701    8.8167  -24.0126 H   0  0  0  0  0  0
  1  2  2  0  0  0
  1  3  1  0  0  0
  1 34  1  0  0  0
  2  6  1  0  0  0
  2 35  1  0  0  0
  3  5  2  0  0  0
  3 28  1  0  0  0
  4  5  1  0  0  0
  4  6  2  0  0  0
  4 11  1  0  0  0
  5 25  1  0  0  0
  6 10  1  0  0  0
  7 10  2  0  0  0
  7 17  1  0  0  0
  7 33  1  0  0  0
  8 15  1  0  0  0
  8 16  1  0  0  0
  8 36  1  0  0  0
  8 37  1  0  0  0
  9 15  1  0  0  0
  9 29  1  0  0  0
  9 38  1  0  0  0
  9 39  1  0  0  0
 10 40  1  0  0  0
 11 17  2  0  0  0
 11 68  1  0  0  0
 12 18  1  0  0  0
 12 32  1  0  0  0
 12 41  1  0  0  0
 12 42  1  0  0  0
 13 14  1  0  0  0
 13 29  1  0  0  0
 13 43  1  0  0  0
 13 44  1  0  0  0
 14 16  1  0  0  0
 14 30  1  0  0  0
 14 45  1  0  0  0
 15 30  1  0  0  0
 15 46  1  0  0  0
 16 47  1  0  0  0
 16 48  1  0  0  0
 17 49  1  0  0  0
 18 19  1  0  0  0
 18 24  1  0  0  0
 18 31  1  0  0  0
 19 20  1  0  0  0
 19 50  1  0  0  0
 19 51  1  0  0  0
 20 21  1  0  0  0
 20 27  1  0  0  0
 20 52  1  0  0  0
 21 31  1  0  0  0
 21 53  1  0  0  0
 21 54  1  0  0  0
 22 23  1  0  0  0
 22 31  1  0  0  0
 22 55  1  0  0  0
 22 56  1  0  0  0
 23 24  1  0  0  0
 23 57  1  0  0  0
 23 58  1  0  0  0
 24 59  1  0  0  0
 24 60  1  0  0  0
 25 26  3  0  0  0
 26 61  1  0  0  0
 29 69  1  0  0  0
 30 62  1  0  0  0
 30 78  1  0  0  0
 31 79  1  0  0  0
 32 71  1  0  0  0
 33 63  1  0  0  0
 64 73  1  0  0  0
 65 67  1  0  0  0
 65 71  2  0  0  0
 66 69  2  0  0  0
 66 71  1  0  0  0
 66 77  1  0  0  0
 67 72  2  0  0  0
 67 73  1  0  0  0
 68 73  2  0  0  0
 68 74  1  0  0  0
 69 72  1  0  0  0
 70 72  1  0  0  0
 70 74  2  0  0  0
 70 75  1  0  0  0
 74 76  1  0  0  0
M  CHG  3  30   1  31   1  66   1
M  END
> <s_m_entry_id>
4

> <s_m_entry_name>
Mirati-central-6-6-ring-fragments.3

> <s_m_Source_Path>
/home/julia/Documents/BSC/pc_bsc/julia/results/KRAS/rescore_fragments_KRAS_Soumya/glide-dock_SP_rescore_Mirati_central-6-6

> <s_m_Source_File>
glide-dock_SP_rescore_Mirati_central-6-6_pv.maegz

> <i_m_Source_File_Index>
4

> <s_m_job_name>
epik_central-6-6

> <s_epik_input>
W0NIXSNDYzFjKEYpW2NIXVtjSF1jKGMxMilbY0hdYyhbT0hdKVtjSF1jMi1jKGMzRilbY0hdW2NIXWMoYzM0KWMoTihbQ0gyXVtDQEhdNTYpW0NIMl1bQ0BIXShbTkhdNilbQ0gyXVtDSDJdNSluYyhuNClPW0NIMl1bQ0BAXTc4TihbQ0gyXVtDQEhdKEYpW0NIMl03KVtDSDJdW0NIMl1bQ0gyXTg=

> <s_epik_cmdline>
J2VwaWtfYXBwJywgJy1pbWFlJywgJy9zaGFyZWQvd29yay9sZGlhei9HTV9TdXBlcmx1bWluYWwvS1JBU19HMTJEL2VwaWtfY2VudHJhbC02LTYvZXBpa19jZW50cmFsLTYtNi5tYWVneicsICctb21hZScsICdlcGlrX2NlbnRyYWwtNi02LW91dC5tYWVneicsICctbnQnLCAnLW1zJywgJzEnLCAnLXBoJywgJzYuOTAnLCAnLXBodCcsICcwLjUwJywgJy1zJywgJ3dhdGVyJw==

> <r_epik_Ionization_Penalty>
 13.3794

> <r_epik_Ionization_Penalty_Charging>
 13.3750

> <r_epik_Ionization_Penalty_Neutral>
  0.0044

> <r_epik_State_Penalty>
  0.0000

> <r_epik_Charging_Adjusted_Penalty>
13.3749839469982

> <i_epik_Tot_Q>
3

> <i_epik_Tot_abs_Q>
3

> <r_lp_tautomer_probability>
1

> <MW_cresset>
600

> <#Atoms_cresset>
44

> <SlogP_cresset>
5.9

> <TPSA_cresset>
74

> <Rof5_cresset>
2

> <_cresset_fieldpoints>
    -5      -3.174050       6.492407     -24.735182     -6.7801
    -5      -3.549190       0.446871     -24.149519     -3.3777
    -5       1.012925       7.699228     -22.873400    -12.7202
    -5       4.025016       8.234457     -24.808596     -9.7103
    -5       3.772458      14.273897     -20.395618     -3.1762
    -5       5.353536      13.753075     -23.406385     -3.3514
    -5       7.706896      12.476650     -21.372202     -3.1431
    -5       7.095308       0.296655     -24.362047     -3.6359
    -5      -2.612026       5.567707     -28.572430     -4.1359
    -6      -6.450073       3.768036     -27.961622      7.6710
    -6       2.371382      -0.468147     -24.608725      5.0508
    -6       7.883345       5.816661     -22.291628      3.0953
    -6       8.446337      -0.031543     -21.090853      8.4792
    -6      -7.477024       3.804796     -25.829702      5.4020
    -6       2.243313       0.394411     -20.905981      3.5938
    -7      -8.445865       3.262358     -22.406809     -1.0310
    -7       7.907472       5.829782     -22.415880     -3.2232
    -7       8.169149       0.592814     -20.023985     -1.9284
    -7       3.607218       4.862273     -20.018213     -2.8455
    -7       1.026643       4.798403     -27.218416     -2.6337
    -7       4.598488       7.945515     -25.289812     -3.0427
    -7      -3.606546       6.532558     -22.758982     -2.7404
    -7       6.999772       0.093081     -24.856907     -2.0193
    -7       4.386425       2.187410     -26.449007     -2.4842
    -7       2.343687       0.473603     -20.549458     -2.3047
    -7       6.166967       7.515748     -18.853701     -1.9968
    -7       2.297091       4.093366     -20.417437     -3.1523
    -7       3.167810      11.176451     -18.360060     -1.3399
    -7       3.016727       6.470139     -19.677927     -2.1031
    -7       1.237005       8.441322     -21.971895     -2.8283
    -7       5.465032      13.535814     -24.193804     -1.5124
    -7       8.163303      12.288712     -21.545855     -1.9189
    -7       1.354449       8.232615     -24.311886     -2.3974
    -7       5.351130       6.379337     -25.400686     -2.5979
    -7       6.903607      11.186592     -18.784819     -1.5369
    -7       1.185139      -0.103944     -22.506620     -2.3951
    -7       2.132009      13.268101     -22.863363     -1.2946
    -7      -1.544437       5.780852     -20.683512     -2.4932
    -7       0.617208       5.462690     -20.629200     -2.6411
    -7      -1.690356       3.977306     -29.475393     -1.2325
    -7      -5.498871       1.538558     -28.140930     -1.2425
    -7      -1.958073       0.183399     -24.006485     -2.9661
    -7      -5.120713       6.067911     -28.017988     -1.2522
    -8      -3.956728       3.381777     -22.991125      7.1828
    -8      -1.054591       4.118826     -24.207249      6.0075
    -8       6.642180       9.480917     -22.428553      5.3503
    -8       5.716685       2.422261     -21.696949      5.1641
    -8       4.591132      10.410606     -21.590715      5.6736
    -8       0.931259       3.547620     -24.212236      7.0991
    -8      -3.112519       3.521775     -25.199873      7.0848
    -8      -1.603438       3.467483     -23.722395      5.8944

> <s_i_glide_gridfile>
glide-grid_7RPZ_constraints

> <i_i_glide_lignum>
3

> <i_i_glide_rotatable_bonds>
7

> <r_i_docking_score>
-12.4691960838045

> <r_i_glide_ligand_efficiency>
-0.283390820086466

> <r_i_glide_ligand_efficiency_sa>
-1.00046830867695

> <r_i_glide_ligand_efficiency_ln>
-2.60633399550097

> <r_i_glide_gscore>
-12.4691960838045

> <r_i_glide_lipo>
-4.05894872752821

> <r_i_glide_hbond>
-0.758671092062433

> <r_i_glide_metal>
0

> <r_i_glide_rewards>
-0.800080173144829

> <r_i_glide_evdw>
-59.704517364502

> <r_i_glide_ecoul>
-25.5193157196045

> <r_i_glide_erotb>
0.228328966117194

> <r_i_glide_esite>
-0.266701831020443

> <r_i_glide_emodel>
0

> <r_i_glide_energy>
-85.2238330841064

> <r_i_glide_einternal>
0

> <i_i_glide_confnum>
1

> <i_i_glide_posenum>
1

> <r_i_glide_eff_state_penalty>
0

> <Total Formal Charge>
0

> <Setting>
[Custom]

> <rmsDist>
0.06

> <rmsAng>
2.1

> <Frag ID>
2803652

> <Attachment Point 1 Type>
Car

> <Attachment Point 2 Type>
Car

> <Attachment Point 3 Type>
Car

> <Unstable>
false

> <Database>
UltraRare

> <Attachment Types>
Ntri,Osp3,Cl|Csp3,Cl|F,Br

> <Frequency>
3

> <Parent Title>
195319954

> <TorsFreq Frag>


> <Strain 1>
0

> <TorsFreq 1>
High

> <Strain 2>
0

> <TorsFreq 2>
High

> <Strain 3>
0

> <TorsFreq 3>
High

> <BIF>
0.864

> <Cluster SMILES>
[Fm]c1nc([Es])c2ccc([Cf])cc2n1

> <Cluster Number>
2

> <Rank>
2

> <Favorite_cresset>
false

> <BIF%>
86

> <Score>
0.976

> <Field Score>
0.957

> <Shape Score>
0.994

> <Docking Score>
0

> <Flexibility_cresset>
5.4

> <#RB_cresset>
6

> <Radial Plot_cresset>
0.4

> <2D Sim_cresset>
0.913

> <Fragment SMILES>
[Fm]c1nc([Es])c2ccc([Cf])c(F)c2n1

> <Parent Aux1>
https://www.emolecules.com/search/#?query=195319954&querytype=emoleculesid

> <s_m_subgroup_title>
glide-dock_SP_rescore_Mirati_central-6-6_pv

> <s_m_subgroupid>
glide-dock_SP_rescore_Mirati_central-6-6_pv

> <b_m_subgroup_collapsed>
0

$$$$
[Fm]c1nc([Es])c2cnc([Cf])cc2n1
                    3D
 Schrodinger Suite 2022-3.
 77 84  0  0  1  0            999 V2000
   -5.0575    3.4294  -22.1361 C   0  0  0  0  0  0
   -5.2404    3.5867  -23.4678 C   0  0  0  0  0  0
   -3.7838    3.1882  -21.6253 C   0  0  0  0  0  0
   -2.8290    3.3654  -23.8572 C   0  0  0  0  0  0
   -2.6829    3.1374  -22.4519 C   0  0  0  0  0  0
   -4.1401    3.5340  -24.3411 C   0  0  0  0  0  0
   -3.3887    3.6256  -26.6069 C   0  0  0  0  0  0
    6.3180    3.0840  -21.2352 C   0  0  0  0  0  0
    6.0083    3.2049  -23.7700 C   0  0  0  0  0  0
   -4.4116    3.6468  -25.7140 C   0  0  0  0  0  0
   -1.7811    3.4352  -24.8213 C   0  0  0  0  0  0
    4.9766    7.3663  -22.1443 C   0  0  0  0  0  0
    4.3177    1.4496  -23.1702 C   0  0  0  0  0  0
    5.3117    1.0104  -22.0673 C   0  0  2  0  0  0
    6.8809    2.6698  -22.6109 C   0  0  2  0  0  0
    5.2792    1.9933  -20.8786 C   0  0  0  0  0  0
   -2.0692    3.5393  -26.1531 C   0  0  0  0  0  0
    5.3325    8.8589  -21.9656 C   0  0  1  0  0  0
    4.4869    9.5680  -20.8800 C   0  0  0  0  0  0
    4.0005   10.8661  -21.5442 C   0  0  2  0  0  0
    3.9646   10.5116  -23.0400 C   0  0  0  0  0  0
    6.2824   10.2292  -23.7002 C   0  0  0  0  0  0
    7.4091    9.3831  -23.1002 C   0  0  0  0  0  0
    6.8471    9.0214  -21.7224 C   0  0  0  0  0  0
   -1.4315    2.7835  -21.8225 C   0  0  0  0  0  0
   -0.3828    2.4626  -21.2852 C   0  0  0  0  0  0
    4.9191   11.8879  -21.3217 F   0  0  0  0  0  0
   -3.6525    2.9811  -20.3039 F   0  0  0  0  0  0
    4.5893    2.8553  -23.5488 N   0  0  0  0  0  0
    6.6770    1.2223  -22.5527 N   0  3  1  0  0  0
    5.0604    9.5500  -23.2374 N   0  3  1  0  0  0
    3.5996    7.2107  -22.5388 O   0  0  0  0  0  0
   -3.6382    3.7061  -27.9424 O   0  0  0  0  0  0
   -5.8426    3.4679  -21.5180 H   0  0  0  0  0  0
   -6.1603    3.7387  -23.8310 H   0  0  0  0  0  0
    7.1357    3.1201  -20.5003 H   0  0  0  0  0  0
    5.8516    4.0771  -21.3138 H   0  0  0  0  0  0
    6.1036    4.2993  -23.8257 H   0  0  0  0  0  0
    6.3441    2.7590  -24.7178 H   0  0  0  0  0  0
   -5.3555    3.7337  -26.0349 H   0  0  0  0  0  0
    5.6192    6.9266  -22.9213 H   0  0  0  0  0  0
    5.1347    6.8353  -21.1940 H   0  0  0  0  0  0
    4.4387    0.8027  -24.0516 H   0  0  0  0  0  0
    3.2885    1.3644  -22.7914 H   0  0  0  0  0  0
    5.0945   -0.0371  -21.8111 H   0  0  0  0  0  0
    7.9201    2.9856  -22.7851 H   0  0  0  0  0  0
    5.5702    1.5034  -19.9377 H   0  0  0  0  0  0
    4.2881    2.4556  -20.7600 H   0  0  0  0  0  0
   -1.3231    3.5748  -26.8192 H   0  0  0  0  0  0
    3.6469    8.9204  -20.5885 H   0  0  0  0  0  0
    5.1154    9.7715  -20.0005 H   0  0  0  0  0  0
    3.0742   11.2929  -21.1321 H   0  0  0  0  0  0
    2.9891   10.0682  -23.2884 H   0  0  0  0  0  0
    4.1155   11.4233  -23.6366 H   0  0  0  0  0  0
    6.3573   11.2599  -23.3233 H   0  0  0  0  0  0
    6.3704   10.2325  -24.7967 H   0  0  0  0  0  0
    7.5849    8.5028  -23.7359 H   0  0  0  0  0  0
    8.3287    9.9841  -23.0437 H   0  0  0  0  0  0
    7.0164    9.8191  -20.9841 H   0  0  0  0  0  0
    7.2609    8.0759  -21.3420 H   0  0  0  0  0  0
    0.5618    2.1736  -20.8012 H   0  0  0  0  0  0
    7.3899    0.7537  -21.8583 H   0  0  0  0  0  0
   -4.6744    3.7742  -28.3052 H   0  0  0  0  0  0
    4.1178    5.0429  -23.0685 N   0  0  0  0  0  0
    1.8781    5.9710  -23.1971 N   0  0  0  0  0  0
    0.4297    2.3930  -24.7689 N   0  0  0  0  0  0
    2.2875    3.6742  -23.8748 C   0  0  0  0  0  0
    0.1011    4.6472  -23.9814 C   0  0  0  0  0  0
    1.4483    4.7723  -23.6698 C   0  0  0  0  0  0
    3.6421    3.8646  -23.5013 C   0  0  0  0  0  0
    1.7206    2.5282  -24.4431 C   0  0  0  0  0  0
   -0.3638    3.4756  -24.5093 C   0  0  0  0  0  0
    3.1921    6.0291  -22.9470 C   0  0  0  0  0  0
   -0.5218    5.4154  -23.8296 H   0  0  0  0  0  0
    2.3229    1.7524  -24.6270 H   0  0  0  0  0  0
    6.7859    0.7708  -23.5498 H   0  0  0  0  0  0
    4.7561    8.8245  -24.0062 H   0  0  0  0  0  0
  1  2  2  0  0  0
  1  3  1  0  0  0
  1 34  1  0  0  0
  2  6  1  0  0  0
  2 35  1  0  0  0
  3  5  2  0  0  0
  3 28  1  0  0  0
  4  5  1  0  0  0
  4  6  2  0  0  0
  4 11  1  0  0  0
  5 25  1  0  0  0
  6 10  1  0  0  0
  7 10  2  0  0  0
  7 17  1  0  0  0
  7 33  1  0  0  0
  8 15  1  0  0  0
  8 16  1  0  0  0
  8 36  1  0  0  0
  8 37  1  0  0  0
  9 15  1  0  0  0
  9 29  1  0  0  0
  9 38  1  0  0  0
  9 39  1  0  0  0
 10 40  1  0  0  0
 11 17  2  0  0  0
 11 72  1  0  0  0
 12 18  1  0  0  0
 12 32  1  0  0  0
 12 41  1  0  0  0
 12 42  1  0  0  0
 13 14  1  0  0  0
 13 29  1  0  0  0
 13 43  1  0  0  0
 13 44  1  0  0  0
 14 16  1  0  0  0
 14 30  1  0  0  0
 14 45  1  0  0  0
 15 30  1  0  0  0
 15 46  1  0  0  0
 16 47  1  0  0  0
 16 48  1  0  0  0
 17 49  1  0  0  0
 18 19  1  0  0  0
 18 24  1  0  0  0
 18 31  1  0  0  0
 19 20  1  0  0  0
 19 50  1  0  0  0
 19 51  1  0  0  0
 20 21  1  0  0  0
 20 27  1  0  0  0
 20 52  1  0  0  0
 21 31  1  0  0  0
 21 53  1  0  0  0
 21 54  1  0  0  0
 22 23  1  0  0  0
 22 31  1  0  0  0
 22 55  1  0  0  0
 22 56  1  0  0  0
 23 24  1  0  0  0
 23 57  1  0  0  0
 23 58  1  0  0  0
 24 59  1  0  0  0
 24 60  1  0  0  0
 25 26  3  0  0  0
 26 61  1  0  0  0
 29 70  1  0  0  0
 30 62  1  0  0  0
 30 76  1  0  0  0
 31 77  1  0  0  0
 32 73  1  0  0  0
 33 63  1  0  0  0
 64 70  2  0  0  0
 64 73  1  0  0  0
 65 69  1  0  0  0
 65 73  2  0  0  0
 66 71  1  0  0  0
 66 72  2  0  0  0
 67 69  1  0  0  0
 67 70  1  0  0  0
 67 71  2  0  0  0
 68 69  2  0  0  0
 68 72  1  0  0  0
 68 74  1  0  0  0
 71 75  1  0  0  0
M  CHG  2  30   1  31   1
M  END
> <s_m_entry_id>
5

> <s_m_entry_name>
Mirati-central-6-6-ring-fragments.2

> <s_m_Source_Path>
/home/julia/Documents/BSC/pc_bsc/julia/results/KRAS/rescore_fragments_KRAS_Soumya/glide-dock_SP_rescore_Mirati_central-6-6

> <s_m_Source_File>
glide-dock_SP_rescore_Mirati_central-6-6_pv.maegz

> <i_m_Source_File_Index>
5

> <s_m_job_name>
epik_central-6-6

> <s_epik_input>
W0NIXSNDYzFjKEYpW2NIXVtjSF1jKGMxMilbY0hdYyhbT0hdKVtjSF1jMi1jKG5bY0hdMylbY0hdYyhjMzQpbmMoT1tDSDJdW0NAQF01Nk4oW0NIMl1bQ0BIXShGKVtDSDJdNSlbQ0gyXVtDSDJdW0NIMl02KW5jNE4oW0NIMl1bQ0BIXTc4KVtDSDJdW0NASF0oW05IXTgpW0NIMl1bQ0gyXTc=

> <s_epik_cmdline>
J2VwaWtfYXBwJywgJy1pbWFlJywgJy9zaGFyZWQvd29yay9sZGlhei9HTV9TdXBlcmx1bWluYWwvS1JBU19HMTJEL2VwaWtfY2VudHJhbC02LTYvZXBpa19jZW50cmFsLTYtNi5tYWVneicsICctb21hZScsICdlcGlrX2NlbnRyYWwtNi02LW91dC5tYWVneicsICctbnQnLCAnLW1zJywgJzEnLCAnLXBoJywgJzYuOTAnLCAnLXBodCcsICcwLjUwJywgJy1zJywgJ3dhdGVyJw==

> <r_epik_Ionization_Penalty>
  0.0564

> <r_epik_Ionization_Penalty_Charging>
  0.0523

> <r_epik_Ionization_Penalty_Neutral>
  0.0041

> <r_epik_State_Penalty>
  0.0000

> <r_epik_Charging_Adjusted_Penalty>
0.0523342448120783

> <i_epik_Tot_Q>
2

> <i_epik_Tot_abs_Q>
2

> <r_lp_tautomer_probability>
1

> <MW_cresset>
583

> <#Atoms_cresset>
43

> <SlogP_cresset>
4.9

> <TPSA_cresset>
87

> <Rof5_cresset>
1

> <_cresset_fieldpoints>
    -5       1.053753       7.764688     -23.026403     -9.4174
    -5      -0.561641       0.704128     -25.155745     -8.7351
    -5       4.075786       8.263781     -24.828367     -8.7672
    -5       5.437020      13.771416     -23.376528     -2.9744
    -5       3.909158      14.379034     -20.424503     -2.7670
    -5      -2.049831       6.569295     -25.828127     -4.2786
    -5       7.712973      12.443325     -21.357641     -2.8375
    -5       7.035682       0.278251     -24.387030     -3.7816
    -5      -2.497859       2.366382     -29.107538     -4.2745
    -6      -6.397467       3.887784     -27.966433      7.7919
    -6      -7.443328       3.952493     -25.788982      5.6660
    -6       7.834957       5.799392     -22.326120      3.5880
    -6       8.461880       0.002649     -21.120584      8.4724
    -6       3.006304      -1.181211     -22.640482      2.6023
    -6       2.364211       0.639033     -20.624830      3.0899
    -6       2.580801      -0.709376     -24.032412      2.5307
    -7      -0.995768       0.294934     -23.966234     -2.8306
    -7       7.899997       5.809298     -22.457525     -3.2040
    -7       8.182045       0.556611     -20.069929     -1.9238
    -7       7.355206       5.881411     -20.038919     -2.1494
    -7       3.579217       4.830584     -20.044977     -2.8600
    -7       1.144549       4.466631     -27.269602     -2.2944
    -7      -2.698904       6.470851     -23.058462     -3.0121
    -7       1.051561      -0.070375     -22.656736     -2.1506
    -7       4.355430       2.178494     -26.439772     -2.3555
    -7       2.355528       0.467652     -20.486315     -2.2387
    -7       6.183367       7.509181     -18.861723     -1.9968
    -7       3.190787      11.163485     -18.341539     -1.3395
    -7       2.353291       4.115255     -20.390066     -3.0757
    -7       1.282659       8.515711     -21.880192     -2.6518
    -7       2.106775      13.255857     -22.844015     -1.2943
    -7       4.617885       7.943895     -25.295406     -3.0374
    -7       8.163836      12.250624     -21.526533     -1.9325
    -7       6.934246      11.209690     -18.809484     -1.5324
    -7       2.979233       6.485787     -19.688368     -2.0789
    -7       5.485670      13.546423     -24.179609     -1.5040
    -7       6.949591       0.092423     -24.877260     -2.0175
    -7      -5.468047       1.558885     -28.165121     -1.2398
    -7      -1.706330       4.171732     -29.460548     -1.2060
    -7      -5.146947       6.061052     -27.999746     -1.2404
    -8      -3.941756       3.374181     -22.987812      7.1657
    -8      -3.096839       3.525016     -25.192059      7.0367
    -8       6.644917       9.443810     -22.429579      5.3423
    -8       4.574415      10.432276     -21.588678      5.6553
    -8       5.708813       2.405382     -21.685549      5.1511
    -8       4.718530       1.655963     -21.777067      4.6743
    -8       1.051219       3.858145     -24.036398      5.3488
    -8       5.645418       9.478899     -21.254187      5.1963
    -8      -1.812133       3.346445     -23.508089      5.6279

> <s_i_glide_gridfile>
glide-grid_7RPZ_constraints

> <i_i_glide_lignum>
2

> <i_i_glide_rotatable_bonds>
7

> <r_i_docking_score>
-12.4505037893934

> <r_i_glide_ligand_efficiency>
-0.289546599753335

> <r_i_glide_ligand_efficiency_sa>
-1.01439699469562

> <r_i_glide_ligand_efficiency_ln>
-2.61499275116684

> <r_i_glide_gscore>
-12.4505037893934

> <r_i_glide_lipo>
-4.05696438042073

> <r_i_glide_hbond>
-0.999406607938961

> <r_i_glide_metal>
0

> <r_i_glide_rewards>
-0.552323838384697

> <r_i_glide_evdw>
-63.6599769592285

> <r_i_glide_ecoul>
-24.5848979949951

> <r_i_glide_erotb>
0.263600542343462

> <r_i_glide_esite>
-0.234675957781772

> <r_i_glide_emodel>
0

> <r_i_glide_energy>
-88.2448749542236

> <r_i_glide_einternal>
0

> <i_i_glide_confnum>
1

> <i_i_glide_posenum>
1

> <r_i_glide_eff_state_penalty>
0

> <Total Formal Charge>
0

> <Setting>
[Custom]

> <rmsDist>
0.06

> <rmsAng>
2.1

> <Frag ID>
2271758

> <Attachment Point 1 Type>
Car

> <Attachment Point 2 Type>
Car

> <Attachment Point 3 Type>
Car

> <Unstable>
false

> <Database>
VeryRare

> <Attachment Types>
Ntri,Osp3,Cl|Csp3,F,Cl|Csp3,Ntri,Cl

> <Frequency>
9

> <Parent Title>
290074740

> <TorsFreq Frag>


> <Strain 1>
0

> <TorsFreq 1>
High

> <Strain 2>
0

> <TorsFreq 2>
High

> <Strain 3>
1.2

> <TorsFreq 3>
High

> <BIF>
0.886

> <Cluster SMILES>
[Fm]c1nc([Es])c2cnc([Cf])cc2n1

> <Cluster Number>
1

> <Rank>
1

> <Favorite_cresset>
false

> <BIF%>
89

> <Score>
0.98

> <Field Score>
0.971

> <Shape Score>
0.988

> <Docking Score>
0

> <Flexibility_cresset>
5.4

> <#RB_cresset>
6

> <Radial Plot_cresset>
0.375

> <2D Sim_cresset>
0.879

> <Fragment SMILES>
[Fm]c1nc([Es])c2cnc([Cf])cc2n1

> <Parent Aux1>
https://www.emolecules.com/search/#?query=290074740&querytype=emoleculesid

> <s_m_subgroup_title>
glide-dock_SP_rescore_Mirati_central-6-6_pv

> <s_m_subgroupid>
glide-dock_SP_rescore_Mirati_central-6-6_pv

> <b_m_subgroup_collapsed>
0

$$$$
[Fm]c1nc([Es])n2[nH]nc([Cf])[nH]n2n1
                    3D
 Schrodinger Suite 2022-3.
 77 84  0  0  1  0            999 V2000
   -5.0941    3.4295  -22.1320 C   0  0  0  0  0  0
   -5.2746    3.5829  -23.4666 C   0  0  0  0  0  0
   -3.8231    3.1861  -21.6139 C   0  0  0  0  0  0
   -2.8637    3.3446  -23.8427 C   0  0  0  0  0  0
   -2.7193    3.1250  -22.4366 C   0  0  0  0  0  0
   -4.1720    3.5186  -24.3355 C   0  0  0  0  0  0
   -3.4004    3.5831  -26.6008 C   0  0  0  0  0  0
    6.3366    3.0476  -21.2285 C   0  0  0  0  0  0
    6.0332    3.1842  -23.7637 C   0  0  0  0  0  0
   -4.4302    3.6306  -25.7108 C   0  0  0  0  0  0
   -1.8086    3.3926  -24.8043 C   0  0  0  0  0  0
    5.0034    7.3916  -22.1129 C   0  0  0  0  0  0
    4.3232    1.4335  -23.1756 C   0  0  0  0  0  0
    5.3144    0.9839  -22.0712 C   0  0  2  0  0  0
    6.8987    2.6378  -22.6049 C   0  0  2  0  0  0
    5.2949    1.9582  -20.8752 C   0  0  0  0  0  0
   -2.0880    3.4723  -26.1445 C   0  0  0  0  0  0
    5.3581    8.8858  -21.9472 C   0  0  1  0  0  0
    4.5247    9.6030  -20.8573 C   0  0  0  0  0  0
    4.0172   10.8902  -21.5291 C   0  0  2  0  0  0
    3.9794   10.5292  -23.0235 C   0  0  0  0  0  0
    6.2922   10.2400  -23.7038 C   0  0  0  0  0  0
    7.4219    9.3972  -23.1057 C   0  0  0  0  0  0
    6.8748    9.0434  -21.7201 C   0  0  0  0  0  0
   -1.4732    2.7745  -21.7949 C   0  0  0  0  0  0
   -0.4251    2.4607  -21.2494 C   0  0  0  0  0  0
    4.9196   11.9283  -21.3168 F   0  0  0  0  0  0
   -3.6960    2.9929  -20.2891 F   0  0  0  0  0  0
    4.6153    2.8387  -23.5341 N   0  0  0  0  0  0
    6.6835    1.1912  -22.5527 N   0  3  1  0  0  0
    5.0742    9.5662  -23.2220 N   0  3  1  0  0  0
    3.6199    7.2254  -22.4753 O   0  0  0  0  0  0
   -3.6359    3.6761  -27.9387 O   0  0  0  0  0  0
   -5.8798    3.4764  -21.5151 H   0  0  0  0  0  0
   -6.1940    3.7406  -23.8290 H   0  0  0  0  0  0
    7.1541    3.0790  -20.4932 H   0  0  0  0  0  0
    5.8723    4.0420  -21.3033 H   0  0  0  0  0  0
    6.1376    4.2780  -23.8151 H   0  0  0  0  0  0
    6.3673    2.7390  -24.7125 H   0  0  0  0  0  0
   -5.3692    3.7394  -26.0381 H   0  0  0  0  0  0
    5.6297    6.9515  -22.9029 H   0  0  0  0  0  0
    5.1849    6.8643  -21.1647 H   0  0  0  0  0  0
    4.4432    0.7903  -24.0599 H   0  0  0  0  0  0
    3.2929    1.3510  -22.7993 H   0  0  0  0  0  0
    5.0845   -0.0623  -21.8211 H   0  0  0  0  0  0
    7.9399    2.9486  -22.7759 H   0  0  0  0  0  0
    5.5891    1.4590  -19.9402 H   0  0  0  0  0  0
    4.3066    2.4238  -20.7470 H   0  0  0  0  0  0
   -1.3391    3.4868  -26.8084 H   0  0  0  0  0  0
    3.6942    8.9533  -20.5440 H   0  0  0  0  0  0
    5.1656    9.8223  -19.9906 H   0  0  0  0  0  0
    3.0861   11.3042  -21.1149 H   0  0  0  0  0  0
    3.0035   10.0848  -23.2688 H   0  0  0  0  0  0
    4.1296   11.4383  -23.6243 H   0  0  0  0  0  0
    6.3729   11.2741  -23.3377 H   0  0  0  0  0  0
    6.3704   10.2324  -24.8010 H   0  0  0  0  0  0
    7.5920    8.5119  -23.7360 H   0  0  0  0  0  0
    8.3426    9.9974  -23.0603 H   0  0  0  0  0  0
    7.0546    9.8434  -20.9868 H   0  0  0  0  0  0
    7.2889    8.0978  -21.3400 H   0  0  0  0  0  0
    0.5180    2.1783  -20.7586 H   0  0  0  0  0  0
    7.3922    0.7157  -21.8587 H   0  0  0  0  0  0
   -4.6673    3.7640  -28.3108 H   0  0  0  0  0  0
    2.3603    3.6810  -23.7931 N   0  0  0  0  0  0
    0.0317    4.5296  -23.7282 N   0  0  0  0  0  0
    1.4412    4.7386  -23.5036 N   0  0  3  0  0  0
    1.9265    5.9338  -23.0676 N   0  0  0  0  0  0
    4.1563    5.0334  -23.0400 N   0  0  0  0  0  0
    0.4434    2.5233  -24.8749 N   0  0  0  0  0  0
    1.8090    2.5495  -24.5250 N   0  0  3  0  0  0
    3.6751    3.8416  -23.4676 C   0  0  0  0  0  0
   -0.4132    3.4572  -24.4696 C   0  0  0  0  0  0
    3.2181    6.0337  -22.8706 C   0  0  0  0  0  0
   -0.7026    5.2311  -23.3053 H   0  0  0  0  0  0
    2.3314    1.8903  -24.7841 H   0  0  0  0  0  0
    4.7625    8.8338  -23.9812 H   0  0  0  0  0  0
    6.7926    0.7438  -23.5517 H   0  0  0  0  0  0
  1  2  2  0  0  0
  1  3  1  0  0  0
  1 34  1  0  0  0
  2  6  1  0  0  0
  2 35  1  0  0  0
  3  5  2  0  0  0
  3 28  1  0  0  0
  4  5  1  0  0  0
  4  6  2  0  0  0
  4 11  1  0  0  0
  5 25  1  0  0  0
  6 10  1  0  0  0
  7 10  2  0  0  0
  7 17  1  0  0  0
  7 33  1  0  0  0
  8 15  1  0  0  0
  8 16  1  0  0  0
  8 36  1  0  0  0
  8 37  1  0  0  0
  9 15  1  0  0  0
  9 29  1  0  0  0
  9 38  1  0  0  0
  9 39  1  0  0  0
 10 40  1  0  0  0
 11 17  2  0  0  0
 11 72  1  0  0  0
 12 18  1  0  0  0
 12 32  1  0  0  0
 12 41  1  0  0  0
 12 42  1  0  0  0
 13 14  1  0  0  0
 13 29  1  0  0  0
 13 43  1  0  0  0
 13 44  1  0  0  0
 14 16  1  0  0  0
 14 30  1  0  0  0
 14 45  1  0  0  0
 15 30  1  0  0  0
 15 46  1  0  0  0
 16 47  1  0  0  0
 16 48  1  0  0  0
 17 49  1  0  0  0
 18 19  1  0  0  0
 18 24  1  0  0  0
 18 31  1  0  0  0
 19 20  1  0  0  0
 19 50  1  0  0  0
 19 51  1  0  0  0
 20 21  1  0  0  0
 20 27  1  0  0  0
 20 52  1  0  0  0
 21 31  1  0  0  0
 21 53  1  0  0  0
 21 54  1  0  0  0
 22 23  1  0  0  0
 22 31  1  0  0  0
 22 55  1  0  0  0
 22 56  1  0  0  0
 23 24  1  0  0  0
 23 57  1  0  0  0
 23 58  1  0  0  0
 24 59  1  0  0  0
 24 60  1  0  0  0
 25 26  3  0  0  0
 26 61  1  0  0  0
 29 71  1  0  0  0
 30 62  1  0  0  0
 30 77  1  0  0  0
 31 76  1  0  0  0
 32 73  1  0  0  0
 33 63  1  0  0  0
 64 66  1  0  0  0
 64 70  1  0  0  0
 64 71  1  0  0  0
 65 66  1  0  0  0
 65 72  1  0  0  0
 65 74  1  0  0  0
 66 67  1  0  0  0
 67 73  2  0  0  0
 68 71  2  0  0  0
 68 73  1  0  0  0
 69 70  1  0  0  0
 69 72  2  0  0  0
 70 75  1  0  0  0
M  CHG  2  30   1  31   1
M  END
> <s_m_entry_id>
6

> <s_m_entry_name>
Mirati-central-6-6-ring-fragments.100

> <s_m_Source_Path>
/home/julia/Documents/BSC/pc_bsc/julia/results/KRAS/rescore_fragments_KRAS_Soumya/glide-dock_SP_rescore_Mirati_central-6-6

> <s_m_Source_File>
glide-dock_SP_rescore_Mirati_central-6-6_pv.maegz

> <i_m_Source_File_Index>
6

> <s_m_job_name>
epik_central-6-6

> <s_epik_input>
W0NIXSNDYzFjKEYpW2NIXVtjSF1jKGMxMilbY0hdYyhbT0hdKVtjSF1jMi1jKG5bbkhdMylbbkhdbihuMzQpbmMoT1tDSDJdW0NAQF01Nk4oW0NIMl1bQ0BIXShGKVtDSDJdNSlbQ0gyXVtDSDJdW0NIMl02KW5jNE4oW0NIMl1bQ0BIXTc4KVtDSDJdW0NASF0oW05IXTgpW0NIMl1bQ0gyXTc=

> <s_epik_cmdline>
J2VwaWtfYXBwJywgJy1pbWFlJywgJy9zaGFyZWQvd29yay9sZGlhei9HTV9TdXBlcmx1bWluYWwvS1JBU19HMTJEL2VwaWtfY2VudHJhbC02LTYvZXBpa19jZW50cmFsLTYtNi5tYWVneicsICctb21hZScsICdlcGlrX2NlbnRyYWwtNi02LW91dC5tYWVneicsICctbnQnLCAnLW1zJywgJzEnLCAnLXBoJywgJzYuOTAnLCAnLXBodCcsICcwLjUwJywgJy1zJywgJ3dhdGVyJw==

> <r_epik_Ionization_Penalty>
  0.2816

> <r_epik_Ionization_Penalty_Charging>
  0.2473

> <r_epik_Ionization_Penalty_Neutral>
  0.0344

> <r_epik_State_Penalty>
  0.0000

> <r_epik_Charging_Adjusted_Penalty>
0.247268523867673

> <i_epik_Tot_Q>
2

> <i_epik_Tot_abs_Q>
2

> <r_lp_tautomer_probability>
1

> <MW_cresset>
591

> <#Atoms_cresset>
43

> <SlogP_cresset>
2.9

> <TPSA_cresset>
127

> <Rof5_cresset>
2

> <_cresset_fieldpoints>
    -5       1.425177       5.778610     -25.287853    -11.7922
    -5      -0.395655       0.751780     -25.242151     -6.9205
    -5       4.019006       8.200052     -24.748049    -10.7289
    -5       1.131715       4.936808     -21.341730     -7.9996
    -5       5.444310      13.746511     -23.424498     -3.3575
    -5       7.713023      12.437832     -21.374067     -3.2711
    -5       3.880548      14.391207     -20.408442     -3.0548
    -5      -1.268672       4.161057     -18.914549     -3.2238
    -5       7.109103       0.255160     -24.377092     -2.7799
    -5      -2.253673       4.727209     -29.090200     -4.5553
    -5      -2.431413       2.578423     -29.213903     -4.5086
    -6      -6.390159       3.955425     -27.987276      7.5073
    -6      -7.466704       4.011599     -25.763245      5.4798
    -6      -1.959750       6.289719     -22.729654      3.6794
    -6       7.942422       5.755800     -22.308390      2.7716
    -6       8.442730      -0.090337     -21.148973      8.7475
    -6       2.970653       0.257647     -25.664978      6.7681
    -7      -8.473103       3.613855     -22.387169     -1.0302
    -7      -3.757616       0.208663     -23.807570     -2.4981
    -7       0.412743       5.569129     -21.153580     -2.6428
    -7       7.890093       5.796964     -22.418634     -3.1921
    -7       8.203467       0.516941     -20.081863     -1.9207
    -7       3.795122       4.890303     -19.892832     -2.5200
    -7      -2.816125       6.467493     -23.116652     -2.7256
    -7      -5.094541       6.084104     -27.959332     -1.2399
    -7       6.966901       0.063697     -24.875639     -1.9934
    -7       4.229980       2.349177     -26.410431     -2.0433
    -7       0.704367       0.443067     -23.454424     -2.6544
    -7       2.362257       0.455361     -20.458210     -2.0515
    -7       2.313165       4.056500     -20.470663     -2.5370
    -7       3.223992      11.200649     -18.322569     -1.3393
    -7       6.230954       7.563308     -18.838400     -1.9863
    -7       3.156053       6.579649     -19.526867     -1.9213
    -7       1.328846       8.620300     -21.755138     -2.4138
    -7       2.068941      13.232018     -22.835388     -1.2942
    -7       5.483631      13.562546     -24.185863     -1.5007
    -7       8.164544      12.275745     -21.542830     -1.9425
    -7       6.998215      11.291946     -18.849855     -1.5301
    -7      -5.574227       1.628132     -28.192881     -1.2347
    -7      -1.740154       4.020379     -29.491823     -1.1811
    -7       4.653640       7.952815     -25.273920     -2.9075
    -7       1.894136       4.984046     -26.090057     -2.4036
    -8      -3.978291       3.359992     -22.979452      7.1463
    -8      -3.131101       3.488618     -25.185829      6.9858
    -8       6.665945       9.451488     -22.432032      5.3360
    -8       4.580951      10.466675     -21.573427      5.6412
    -8       5.697955       9.436586     -21.230455      5.1859
    -8       5.738859       2.371649     -21.662149      5.1136

> <s_i_glide_gridfile>
glide-grid_7RPZ_constraints

> <i_i_glide_lignum>
100

> <i_i_glide_rotatable_bonds>
7

> <r_i_docking_score>
-12.324054149847

> <r_i_glide_ligand_efficiency>
-0.286605910461558

> <r_i_glide_ligand_efficiency_sa>
-1.00409458954753

> <r_i_glide_ligand_efficiency_ln>
-2.58843439687092

> <r_i_glide_gscore>
-12.324054149847

> <r_i_glide_lipo>
-3.4331950091812

> <r_i_glide_hbond>
-0.919417449788

> <r_i_glide_metal>
0

> <r_i_glide_rewards>
-1.10421938354943

> <r_i_glide_evdw>
-66.452751159668

> <r_i_glide_ecoul>
-23.7061634063721

> <r_i_glide_erotb>
0.247521333019098

> <r_i_glide_esite>
-0.236181571408264

> <r_i_glide_emodel>
0

> <r_i_glide_energy>
-90.15891456604

> <r_i_glide_einternal>
0

> <i_i_glide_confnum>
1

> <i_i_glide_posenum>
1

> <r_i_glide_eff_state_penalty>
0

> <Total Formal Charge>
0

> <Setting>
[Custom]

> <rmsDist>
0.05

> <rmsAng>
2

> <Frag ID>
112469

> <Attachment Point 1 Type>
Car

> <Attachment Point 2 Type>
Car

> <Attachment Point 3 Type>
Car

> <Unstable>
false

> <Database>
VEHICLe

> <Attachment Types>
Csp3|Csp3|Csp3

> <Frequency>
1

> <TorsFreq Frag>


> <Strain 1>
0

> <TorsFreq 1>
High

> <Strain 2>
0

> <TorsFreq 2>
Medium

> <Strain 3>
2.5

> <TorsFreq 3>
High

> <BIF>
0.508

> <Cluster SMILES>
[Fm]c1nc([Es])n2[nH]nc([Cf])[nH]n2n1

> <Cluster Number>
36

> <Rank>
99

> <Favorite_cresset>
false

> <BIF%>
51

> <Score>
0.912

> <Field Score>
0.842

> <Shape Score>
0.982

> <Docking Score>
0

> <Flexibility_cresset>
5.9

> <#RB_cresset>
6

> <Radial Plot_cresset>
0.453

> <2D Sim_cresset>
0.684

> <Fragment SMILES>
[Fm]c1nc([Es])n2[nH]nc([Cf])[nH]n2n1

> <Parent Aux1>
Training dataset hits: 0

> <s_epik_Chemistry_Notes>
This compound has an imine and may undergo hydrolysis.

> <Parent Aux2>
Beilstein hits: 0

> <s_m_subgroup_title>
glide-dock_SP_rescore_Mirati_central-6-6_pv

> <s_m_subgroupid>
glide-dock_SP_rescore_Mirati_central-6-6_pv

> <b_m_subgroup_collapsed>
0

$$$$
[Fm]c1nn2-c([nH]nc([Cf])[nH]2)c([Es])[nH]1
                    3D
 Schrodinger Suite 2022-3.
 78 85  0  0  1  0            999 V2000
   -5.0781    3.4334  -22.1334 C   0  0  0  0  0  0
   -5.2664    3.5859  -23.4654 C   0  0  0  0  0  0
   -3.8029    3.1882  -21.6276 C   0  0  0  0  0  0
   -2.8602    3.3429  -23.8666 C   0  0  0  0  0  0
   -2.7063    3.1261  -22.4607 C   0  0  0  0  0  0
   -4.1720    3.5199  -24.3447 C   0  0  0  0  0  0
   -3.4250    3.5960  -26.6149 C   0  0  0  0  0  0
    6.3633    3.0414  -21.2656 C   0  0  0  0  0  0
    5.9963    2.9981  -23.8720 C   0  0  0  0  0  0
   -4.4459    3.6350  -25.7172 C   0  0  0  0  0  0
   -1.8152    3.3922  -24.8344 C   0  0  0  0  0  0
    5.0237    7.4780  -22.0920 C   0  0  0  0  0  0
    4.3312    1.3587  -23.1452 C   0  0  0  0  0  0
    5.3211    0.9730  -22.0197 C   0  0  2  0  0  0
    6.8766    2.6035  -22.6576 C   0  0  2  0  0  0
    5.2700    2.0148  -20.8864 C   0  0  0  0  0  0
   -2.1075    3.4856  -26.1667 C   0  0  0  0  0  0
    5.3600    8.9734  -21.9219 C   0  0  1  0  0  0
    4.5164    9.6870  -20.8400 C   0  0  0  0  0  0
    4.0158   10.9716  -21.5212 C   0  0  2  0  0  0
    3.9748   10.5966  -23.0126 C   0  0  0  0  0  0
    6.2926   10.3133  -23.6871 C   0  0  0  0  0  0
    7.4336    9.4953  -23.0713 C   0  0  0  0  0  0
    6.8742    9.1497  -21.6883 C   0  0  0  0  0  0
   -1.4489    2.7836  -21.8365 C   0  0  0  0  0  0
   -0.3941    2.4748  -21.3029 C   0  0  0  0  0  0
    4.9255   12.0066  -21.3211 F   0  0  0  0  0  0
   -3.6648    2.9900  -20.3061 F   0  0  0  0  0  0
    4.5517    2.6901  -23.7636 N   0  0  0  0  0  0
    6.6876    1.1628  -22.5128 N   0  3  1  0  0  0
    5.0748    9.6385  -23.2037 N   0  3  1  0  0  0
    3.6414    7.2743  -22.4543 O   0  0  0  0  0  0
   -3.6699    3.6897  -27.9496 O   0  0  0  0  0  0
   -5.8601    3.4801  -21.5129 H   0  0  0  0  0  0
   -6.1859    3.7430  -23.8260 H   0  0  0  0  0  0
    7.1955    3.0261  -20.5465 H   0  0  0  0  0  0
    5.9530    4.0600  -21.3298 H   0  0  0  0  0  0
    6.0624    4.0839  -24.0353 H   0  0  0  0  0  0
    6.3514    2.4701  -24.7693 H   0  0  0  0  0  0
   -5.3889    3.7381  -26.0359 H   0  0  0  0  0  0
    5.6541    7.0483  -22.8844 H   0  0  0  0  0  0
    5.2130    6.9497  -21.1459 H   0  0  0  0  0  0
    4.3987    0.6235  -23.9607 H   0  0  0  0  0  0
    3.3067    1.3691  -22.7448 H   0  0  0  0  0  0
    5.1129   -0.0615  -21.7093 H   0  0  0  0  0  0
    7.8853    2.9912  -22.8631 H   0  0  0  0  0  0
    5.5065    1.5720  -19.9076 H   0  0  0  0  0  0
    4.2945    2.5205  -20.8341 H   0  0  0  0  0  0
   -1.3642    3.5053  -26.8349 H   0  0  0  0  0  0
    3.6845    9.0353  -20.5347 H   0  0  0  0  0  0
    5.1492    9.9068  -19.9675 H   0  0  0  0  0  0
    3.0883   11.3947  -21.1079 H   0  0  0  0  0  0
    3.0006   10.1444  -23.2503 H   0  0  0  0  0  0
    4.1177   11.5010  -23.6222 H   0  0  0  0  0  0
    6.3578   11.3543  -23.3378 H   0  0  0  0  0  0
    6.3742   10.2888  -24.7838 H   0  0  0  0  0  0
    7.6242    8.6071  -23.6916 H   0  0  0  0  0  0
    8.3433   10.1120  -23.0247 H   0  0  0  0  0  0
    7.0414    9.9593  -20.9626 H   0  0  0  0  0  0
    7.2962    8.2127  -21.2960 H   0  0  0  0  0  0
    0.5556    2.1968  -20.8225 H   0  0  0  0  0  0
    7.4006    0.7426  -21.7881 H   0  0  0  0  0  0
   -4.7040    3.7771  -28.3142 H   0  0  0  0  0  0
    4.0681    5.0053  -22.9957 N   0  0  0  0  0  0
    0.0809    4.5726  -23.8874 N   0  0  0  0  0  0
    2.0030    5.9552  -23.1680 N   0  0  0  0  0  0
    0.4076    2.4598  -24.8238 N   0  0  0  0  0  0
    1.4967    4.7205  -23.6352 N   0  0  0  0  0  0
    1.7892    2.5061  -24.5021 N   0  0  0  0  0  0
    2.3469    3.6371  -23.8824 C   0  0  0  0  0  0
    3.6329    3.7465  -23.5472 C   0  0  0  0  0  0
   -0.4107    3.4463  -24.5127 C   0  0  0  0  0  0
    3.2656    6.0783  -22.8599 C   0  0  0  0  0  0
    5.1078    5.1277  -22.6579 H   0  0  0  0  0  0
   -0.6182    5.3641  -23.5795 H   0  0  0  0  0  0
    2.4378    1.6495  -24.7379 H   0  0  0  0  0  0
    4.7673    8.9000  -23.9587 H   0  0  0  0  0  0
    6.8030    0.6510  -23.4796 H   0  0  0  0  0  0
  1  2  2  0  0  0
  1  3  1  0  0  0
  1 34  1  0  0  0
  2  6  1  0  0  0
  2 35  1  0  0  0
  3  5  2  0  0  0
  3 28  1  0  0  0
  4  5  1  0  0  0
  4  6  2  0  0  0
  4 11  1  0  0  0
  5 25  1  0  0  0
  6 10  1  0  0  0
  7 10  2  0  0  0
  7 17  1  0  0  0
  7 33  1  0  0  0
  8 15  1  0  0  0
  8 16  1  0  0  0
  8 36  1  0  0  0
  8 37  1  0  0  0
  9 15  1  0  0  0
  9 29  1  0  0  0
  9 38  1  0  0  0
  9 39  1  0  0  0
 10 40  1  0  0  0
 11 17  2  0  0  0
 11 72  1  0  0  0
 12 18  1  0  0  0
 12 32  1  0  0  0
 12 41  1  0  0  0
 12 42  1  0  0  0
 13 14  1  0  0  0
 13 29  1  0  0  0
 13 43  1  0  0  0
 13 44  1  0  0  0
 14 16  1  0  0  0
 14 30  1  0  0  0
 14 45  1  0  0  0
 15 30  1  0  0  0
 15 46  1  0  0  0
 16 47  1  0  0  0
 16 48  1  0  0  0
 17 49  1  0  0  0
 18 19  1  0  0  0
 18 24  1  0  0  0
 18 31  1  0  0  0
 19 20  1  0  0  0
 19 50  1  0  0  0
 19 51  1  0  0  0
 20 21  1  0  0  0
 20 27  1  0  0  0
 20 52  1  0  0  0
 21 31  1  0  0  0
 21 53  1  0  0  0
 21 54  1  0  0  0
 22 23  1  0  0  0
 22 31  1  0  0  0
 22 55  1  0  0  0
 22 56  1  0  0  0
 23 24  1  0  0  0
 23 57  1  0  0  0
 23 58  1  0  0  0
 24 59  1  0  0  0
 24 60  1  0  0  0
 25 26  3  0  0  0
 26 61  1  0  0  0
 29 71  1  0  0  0
 30 62  1  0  0  0
 30 78  1  0  0  0
 31 77  1  0  0  0
 32 73  1  0  0  0
 33 63  1  0  0  0
 64 71  1  0  0  0
 64 73  1  0  0  0
 64 74  1  0  0  0
 65 68  1  0  0  0
 65 72  1  0  0  0
 65 75  1  0  0  0
 66 68  1  0  0  0
 66 73  2  0  0  0
 67 69  1  0  0  0
 67 72  2  0  0  0
 68 70  1  0  0  0
 69 70  1  0  0  0
 69 76  1  0  0  0
 70 71  2  0  0  0
M  CHG  2  30   1  31   1
M  END
> <s_m_entry_id>
7

> <s_m_entry_name>
Mirati-central-6-6-ring-fragments.287

> <s_m_Source_Path>
/home/julia/Documents/BSC/pc_bsc/julia/results/KRAS/rescore_fragments_KRAS_Soumya/glide-dock_SP_rescore_Mirati_central-6-6

> <s_m_Source_File>
glide-dock_SP_rescore_Mirati_central-6-6_pv.maegz

> <i_m_Source_File_Index>
7

> <s_m_job_name>
epik_central-6-6

> <s_epik_input>
W0NIXSNDYzFjKEYpW2NIXVtjSF1jKGMxMilbY0hdYyhbT0hdKVtjSF1jMi1jKFtuSF0zKW5bbkhdYyhuMzQpYyhOKFtDSDJdW0NASF01NilbQ0gyXVtDQEhdKFtOSF02KVtDSDJdW0NIMl01KVtuSF1jKG40KU9bQ0gyXVtDQEBdNzhOKFtDSDJdW0NASF0oRilbQ0gyXTcpW0NIMl1bQ0gyXVtDSDJdOA==

> <s_epik_cmdline>
J2VwaWtfYXBwJywgJy1pbWFlJywgJy9zaGFyZWQvd29yay9sZGlhei9HTV9TdXBlcmx1bWluYWwvS1JBU19HMTJEL2VwaWtfY2VudHJhbC02LTYvZXBpa19jZW50cmFsLTYtNi5tYWVneicsICctb21hZScsICdlcGlrX2NlbnRyYWwtNi02LW91dC5tYWVneicsICctbnQnLCAnLW1zJywgJzEnLCAnLXBoJywgJzYuOTAnLCAnLXBodCcsICcwLjUwJywgJy1zJywgJ3dhdGVyJw==

> <r_epik_Ionization_Penalty>
  0.2439

> <r_epik_Ionization_Penalty_Charging>
  0.2293

> <r_epik_Ionization_Penalty_Neutral>
  0.0147

> <r_epik_State_Penalty>
  0.0000

> <r_epik_Charging_Adjusted_Penalty>
0.229265240618719

> <i_epik_Tot_Q>
2

> <i_epik_Tot_abs_Q>
2

> <r_lp_tautomer_probability>
1

> <MW_cresset>
590

> <#Atoms_cresset>
43

> <SlogP_cresset>
3.7

> <TPSA_cresset>
126

> <Rof5_cresset>
2

> <_cresset_fieldpoints>
    -5      -0.265806       0.713199     -24.457911    -11.5805
    -5       0.959349       4.871154     -21.544668     -8.4867
    -5      -2.558861       2.175866     -28.966444     -6.3229
    -5       1.287841       5.612725     -25.606810    -11.6547
    -5       1.398949       3.132297     -26.593033    -11.0598
    -5       5.361545      13.929562     -23.377584     -2.1230
    -5       7.690187      12.712389     -21.450724     -1.7654
    -5       3.970209      14.609308     -20.615816     -2.0253
    -5       7.009656       0.001448     -24.234562     -3.4504
    -6      -7.503035       4.069247     -25.743727      4.2231
    -6      -6.430813       3.985502     -28.005308      6.2267
    -6      -1.783608       6.531116     -23.023106      2.7213
    -6       7.199395       5.632137     -22.534687      9.9388
    -6       8.557364       0.216319     -20.988993      9.1058
    -6       4.173725      -1.858216     -23.129602      1.6538
    -6       3.108965       0.185515     -25.726740      2.5691
    -6       2.421761      10.321650     -18.704679      1.5596
    -7      -8.269321       4.566031     -22.309221     -1.0282
    -7      -3.765746       0.210171     -23.805880     -2.4949
    -7      -2.748645       6.460205     -23.131807     -2.7419
    -7      -3.349180       0.269474     -24.851286     -2.4394
    -7       7.993885       0.355105     -19.950977     -1.9103
    -7       7.772953       5.788561     -22.550566     -3.3257
    -7       3.857603       4.945524     -19.942745     -2.7683
    -7       4.616961       8.027983     -25.251299     -2.9539
    -7       5.448552       6.337862     -25.314878     -2.5962
    -7       6.207521       7.666585     -18.802984     -1.9802
    -7       6.958726      -0.254721     -24.661257     -1.9879
    -7       2.381384       0.527703     -20.378338     -2.1284
    -7       2.328809       4.146205     -20.436699     -2.7457
    -7       1.030823       6.407617     -25.536768     -2.4140
    -7       3.245965      11.323084     -18.313025     -1.3380
    -7       1.339891       8.647436     -21.755245     -2.4071
    -7       2.093884      13.327074     -22.847067     -1.2930
    -7       5.456891      13.630768     -24.204767     -1.4976
    -7       8.156572      12.396248     -21.556433     -1.9349
    -7       6.960310      11.384384     -18.811714     -1.5308
    -7       0.374261       5.590971     -21.342020     -2.9190
    -7       0.655099       0.385317     -23.463957     -2.8177
    -7       4.203943       1.976797     -26.433001     -2.2562
    -7      -5.148202       6.073436     -27.985826     -1.2381
    -7      -5.590132       1.612361     -28.175268     -1.2347
    -7      -1.773473       3.999990     -29.514185     -1.1837
    -7       3.212674       6.613003     -19.529470     -1.9763
    -7       1.280113       2.640975     -27.139894     -2.0938
    -8      -3.970161       3.363023     -22.990107      7.1509
    -8      -3.140058       3.494870     -25.205111      6.9968
    -8       5.676571       2.371018     -21.767916      5.2105
    -8       6.662539       9.543770     -22.403856      5.3453
    -8       4.592712      10.542179     -21.559629      5.6556
    -8       5.680152       9.584246     -21.218000      5.2036
    -8       6.023457       8.371351     -21.725616      5.0839

> <s_i_glide_gridfile>
glide-grid_7RPZ_constraints

> <i_i_glide_lignum>
287

> <i_i_glide_rotatable_bonds>
7

> <r_i_docking_score>
-12.3174942466848

> <r_i_glide_ligand_efficiency>
-0.286453354574065

> <r_i_glide_ligand_efficiency_sa>
-1.00356012554785

> <r_i_glide_ligand_efficiency_ln>
-2.58705661332837

> <r_i_glide_gscore>
-12.3174942466848

> <r_i_glide_lipo>
-3.54041350452369

> <r_i_glide_hbond>
-0.895103543500666

> <r_i_glide_metal>
0

> <r_i_glide_rewards>
-0.971513122662234

> <r_i_glide_evdw>
-65.6780166625977

> <r_i_glide_ecoul>
-24.0666751861572

> <r_i_glide_erotb>
0.249471978432745

> <r_i_glide_esite>
-0.266033943377503

> <r_i_glide_emodel>
0

> <r_i_glide_energy>
-89.7446918487549

> <r_i_glide_einternal>
0

> <i_i_glide_confnum>
1

> <i_i_glide_posenum>
1

> <r_i_glide_eff_state_penalty>
0

> <Total Formal Charge>
0

> <Setting>
[Custom]

> <rmsDist>
0.09

> <rmsAng>
2.8

> <Frag ID>
131383

> <Attachment Point 1 Type>
Car

> <Attachment Point 2 Type>
Car

> <Attachment Point 3 Type>
Car

> <Unstable>
false

> <Database>
VEHICLe

> <Attachment Types>
Csp3|Csp3|Csp3

> <Frequency>
1

> <TorsFreq Frag>


> <Strain 1>
0

> <TorsFreq 1>
High

> <Strain 2>
0

> <TorsFreq 2>
Medium

> <Strain 3>
2.3

> <TorsFreq 3>
High

> <BIF>
0.336

> <Cluster SMILES>
[Fm]c1nn2-c([nH]nc([Cf])[nH]2)c([Es])[nH]1

> <Cluster Number>
121

> <Rank>
286

> <Favorite_cresset>
false

> <BIF%>
34

> <Score>
0.882

> <Field Score>
0.781

> <Shape Score>
0.982

> <Docking Score>
0

> <Flexibility_cresset>
5.6

> <#RB_cresset>
6

> <Radial Plot_cresset>
0.28

> <2D Sim_cresset>
0.679

> <Fragment SMILES>
[Fm]c1nn2-c([nH]nc([Cf])[nH]2)c([Es])[nH]1

> <Parent Aux1>
Training dataset hits: 0

> <s_epik_Chemistry_Notes>
This compound has an imine and may undergo hydrolysis.

> <Parent Aux2>
Beilstein hits: 0

> <s_m_subgroup_title>
glide-dock_SP_rescore_Mirati_central-6-6_pv

> <s_m_subgroupid>
glide-dock_SP_rescore_Mirati_central-6-6_pv

> <b_m_subgroup_collapsed>
0

$$$$
[Fm]c1nc([Es])c2cnc([Cf])nc2n1
                    3D
 Schrodinger Suite 2022-3.
 76 83  0  0  1  0            999 V2000
   -5.0264    3.4073  -22.1391 C   0  0  0  0  0  0
   -5.2099    3.5664  -23.4711 C   0  0  0  0  0  0
   -3.7521    3.1834  -21.6204 C   0  0  0  0  0  0
   -2.7993    3.3691  -23.8548 C   0  0  0  0  0  0
   -2.6510    3.1456  -22.4486 C   0  0  0  0  0  0
   -4.1095    3.5268  -24.3450 C   0  0  0  0  0  0
   -3.3347    3.6287  -26.6089 C   0  0  0  0  0  0
    6.3086    3.0717  -21.2454 C   0  0  0  0  0  0
    5.9579    3.2023  -23.7775 C   0  0  0  0  0  0
   -4.3648    3.6482  -25.7203 C   0  0  0  0  0  0
   -1.7447    3.4353  -24.8098 C   0  0  0  0  0  0
    4.9327    7.3582  -22.1601 C   0  0  0  0  0  0
    4.2673    1.4550  -23.1487 C   0  0  0  0  0  0
    5.2810    1.0030  -22.0671 C   0  0  2  0  0  0
    6.8465    2.6620  -22.6331 C   0  0  2  0  0  0
    5.2778    1.9789  -20.8706 C   0  0  0  0  0  0
   -2.0205    3.5378  -26.1437 C   0  0  0  0  0  0
    5.3102    8.8451  -21.9793 C   0  0  1  0  0  0
    4.4798    9.5570  -20.8842 C   0  0  0  0  0  0
    3.9948   10.8605  -21.5398 C   0  0  2  0  0  0
    3.9593   10.5226  -23.0405 C   0  0  0  0  0  0
    6.2761   10.2170  -23.7031 C   0  0  0  0  0  0
    7.3905    9.3464  -23.1132 C   0  0  0  0  0  0
    6.8294    8.9750  -21.7367 C   0  0  0  0  0  0
   -1.3941    2.8248  -21.8119 C   0  0  0  0  0  0
   -0.3409    2.5335  -21.2663 C   0  0  0  0  0  0
    4.9114   11.8825  -21.3074 F   0  0  0  0  0  0
   -3.6176    2.9951  -20.2942 F   0  0  0  0  0  0
    4.5418    2.8575  -23.5361 N   0  0  0  0  0  0
    6.6374    1.2149  -22.5804 N   0  3  1  0  0  0
    5.0446    9.5501  -23.2460 N   0  3  1  0  0  0
    3.5585    7.2120  -22.5727 O   0  0  0  0  0  0
   -3.5708    3.7245  -27.9448 O   0  0  0  0  0  0
   -5.8127    3.4431  -21.5237 H   0  0  0  0  0  0
   -6.1309    3.7149  -23.8313 H   0  0  0  0  0  0
    7.1398    3.1072  -20.5258 H   0  0  0  0  0  0
    5.8392    4.0642  -21.3125 H   0  0  0  0  0  0
    6.0559    4.2965  -23.8324 H   0  0  0  0  0  0
    6.2775    2.7572  -24.7313 H   0  0  0  0  0  0
   -5.3056    3.7460  -26.0463 H   0  0  0  0  0  0
    5.5781    6.9068  -22.9280 H   0  0  0  0  0  0
    5.0700    6.8265  -21.2070 H   0  0  0  0  0  0
    4.3617    0.8076  -24.0330 H   0  0  0  0  0  0
    3.2457    1.3811  -22.7475 H   0  0  0  0  0  0
    5.0640   -0.0449  -21.8125 H   0  0  0  0  0  0
    7.8835    2.9772  -22.8208 H   0  0  0  0  0  0
    5.5913    1.4829  -19.9402 H   0  0  0  0  0  0
    4.2902    2.4409  -20.7250 H   0  0  0  0  0  0
   -1.2698    3.5732  -26.8036 H   0  0  0  0  0  0
    3.6384    8.9142  -20.5861 H   0  0  0  0  0  0
    5.1180    9.7543  -20.0103 H   0  0  0  0  0  0
    3.0674   11.2810  -21.1238 H   0  0  0  0  0  0
    2.9794   10.0934  -23.2966 H   0  0  0  0  0  0
    4.1227   11.4390  -23.6267 H   0  0  0  0  0  0
    6.3672   11.2421  -23.3147 H   0  0  0  0  0  0
    6.3635   10.2313  -24.7995 H   0  0  0  0  0  0
    7.5518    8.4703  -23.7586 H   0  0  0  0  0  0
    8.3195    9.9322  -23.0512 H   0  0  0  0  0  0
    7.0153    9.7582  -20.9870 H   0  0  0  0  0  0
    7.2257    8.0161  -21.3713 H   0  0  0  0  0  0
    0.6076    2.2711  -20.7749 H   0  0  0  0  0  0
    7.3636    0.7392  -21.9048 H   0  0  0  0  0  0
   -4.6034    3.7963  -28.3171 H   0  0  0  0  0  0
    0.0398    4.6463  -23.9300 N   0  0  0  0  0  0
    1.8303    5.9654  -23.1892 N   0  0  0  0  0  0
    4.0751    5.0443  -23.0670 N   0  0  0  0  0  0
    0.4335    2.4129  -24.7909 N   0  0  0  0  0  0
    3.5984    3.8683  -23.4927 C   0  0  0  0  0  0
    1.3653    4.7706  -23.6561 C   0  0  0  0  0  0
    3.1481    6.0264  -22.9565 C   0  0  0  0  0  0
    2.2427    3.6893  -23.8679 C   0  0  0  0  0  0
    1.7189    2.5481  -24.4607 C   0  0  0  0  0  0
   -0.3359    3.4844  -24.4831 C   0  0  0  0  0  0
    2.3368    1.7882  -24.6599 H   0  0  0  0  0  0
    6.7237    0.7706  -23.5830 H   0  0  0  0  0  0
    4.7300    8.8362  -24.0215 H   0  0  0  0  0  0
  1  2  2  0  0  0
  1  3  1  0  0  0
  1 34  1  0  0  0
  2  6  1  0  0  0
  2 35  1  0  0  0
  3  5  2  0  0  0
  3 28  1  0  0  0
  4  5  1  0  0  0
  4  6  2  0  0  0
  4 11  1  0  0  0
  5 25  1  0  0  0
  6 10  1  0  0  0
  7 10  2  0  0  0
  7 17  1  0  0  0
  7 33  1  0  0  0
  8 15  1  0  0  0
  8 16  1  0  0  0
  8 36  1  0  0  0
  8 37  1  0  0  0
  9 15  1  0  0  0
  9 29  1  0  0  0
  9 38  1  0  0  0
  9 39  1  0  0  0
 10 40  1  0  0  0
 11 17  2  0  0  0
 11 73  1  0  0  0
 12 18  1  0  0  0
 12 32  1  0  0  0
 12 41  1  0  0  0
 12 42  1  0  0  0
 13 14  1  0  0  0
 13 29  1  0  0  0
 13 43  1  0  0  0
 13 44  1  0  0  0
 14 16  1  0  0  0
 14 30  1  0  0  0
 14 45  1  0  0  0
 15 30  1  0  0  0
 15 46  1  0  0  0
 16 47  1  0  0  0
 16 48  1  0  0  0
 17 49  1  0  0  0
 18 19  1  0  0  0
 18 24  1  0  0  0
 18 31  1  0  0  0
 19 20  1  0  0  0
 19 50  1  0  0  0
 19 51  1  0  0  0
 20 21  1  0  0  0
 20 27  1  0  0  0
 20 52  1  0  0  0
 21 31  1  0  0  0
 21 53  1  0  0  0
 21 54  1  0  0  0
 22 23  1  0  0  0
 22 31  1  0  0  0
 22 55  1  0  0  0
 22 56  1  0  0  0
 23 24  1  0  0  0
 23 57  1  0  0  0
 23 58  1  0  0  0
 24 59  1  0  0  0
 24 60  1  0  0  0
 25 26  3  0  0  0
 26 61  1  0  0  0
 29 68  1  0  0  0
 30 62  1  0  0  0
 30 75  1  0  0  0
 31 76  1  0  0  0
 32 70  1  0  0  0
 33 63  1  0  0  0
 64 69  1  0  0  0
 64 73  2  0  0  0
 65 69  2  0  0  0
 65 70  1  0  0  0
 66 68  1  0  0  0
 66 70  2  0  0  0
 67 72  2  0  0  0
 67 73  1  0  0  0
 68 71  2  0  0  0
 69 71  1  0  0  0
 71 72  1  0  0  0
 72 74  1  0  0  0
M  CHG  2  30   1  31   1
M  END
> <s_m_entry_id>
8

> <s_m_entry_name>
Mirati-central-6-6-ring-fragments.25

> <s_m_Source_Path>
/home/julia/Documents/BSC/pc_bsc/julia/results/KRAS/rescore_fragments_KRAS_Soumya/glide-dock_SP_rescore_Mirati_central-6-6

> <s_m_Source_File>
glide-dock_SP_rescore_Mirati_central-6-6_pv.maegz

> <i_m_Source_File_Index>
8

> <s_m_job_name>
epik_central-6-6

> <s_epik_input>
W0NIXSNDYzFjKEYpW2NIXVtjSF1jKGMxMilbY0hdYyhbT0hdKVtjSF1jMi1jKG4zKW5bY0hdYyhjMzQpYyhOKFtDSDJdW0NASF01NilbQ0gyXVtDQEhdKFtOSF02KVtDSDJdW0NIMl01KW5jKG40KU9bQ0gyXVtDQEBdNzhOKFtDSDJdW0NASF0oRilbQ0gyXTcpW0NIMl1bQ0gyXVtDSDJdOA==

> <s_epik_cmdline>
J2VwaWtfYXBwJywgJy1pbWFlJywgJy9zaGFyZWQvd29yay9sZGlhei9HTV9TdXBlcmx1bWluYWwvS1JBU19HMTJEL2VwaWtfY2VudHJhbC02LTYvZXBpa19jZW50cmFsLTYtNi5tYWVneicsICctb21hZScsICdlcGlrX2NlbnRyYWwtNi02LW91dC5tYWVneicsICctbnQnLCAnLW1zJywgJzEnLCAnLXBoJywgJzYuOTAnLCAnLXBodCcsICcwLjUwJywgJy1zJywgJ3dhdGVyJw==

> <r_epik_Ionization_Penalty>
  0.0614

> <r_epik_Ionization_Penalty_Charging>
  0.0523

> <r_epik_Ionization_Penalty_Neutral>
  0.0091

> <r_epik_State_Penalty>
  0.0000

> <r_epik_Charging_Adjusted_Penalty>
0.0523342448120783

> <i_epik_Tot_Q>
2

> <i_epik_Tot_abs_Q>
2

> <r_lp_tautomer_probability>
1

> <MW_cresset>
584

> <#Atoms_cresset>
43

> <SlogP_cresset>
4.3

> <TPSA_cresset>
100

> <Rof5_cresset>
1

> <_cresset_fieldpoints>
    -5      -0.933178       6.263498     -23.364216    -13.1895
    -5      -0.641867       0.669003     -25.127344     -6.7398
    -5       0.315228       7.217899     -23.087076    -12.6485
    -5       3.747250      14.304512     -20.418875     -3.0081
    -5       7.704082      12.374767     -21.318657     -2.9541
    -5       5.407214      13.768423     -23.364405     -3.1507
    -5       6.973133       0.271207     -24.419346     -3.1836
    -5       3.989381       8.292213     -24.835844     -8.9645
    -5      -2.387626       5.437565     -28.685263     -4.2746
    -6      -6.331579       3.819071     -27.982924      7.9242
    -6      -7.394981       3.812193     -25.831903      5.7101
    -6       7.802535       5.761486     -22.420790      3.9030
    -6       8.439988      -0.023385     -21.190733      8.8191
    -6       2.450331      -0.525380     -24.279585      3.6462
    -6       2.335454       0.631828     -20.646852      3.6686
    -7      -8.401451       3.697019     -22.382872     -1.0302
    -7      -3.476207       0.216171     -23.958967     -2.5124
    -7      -1.497679       6.228293     -22.683023     -3.0197
    -7       7.884689       5.785756     -22.524788     -3.1801
    -7       8.206856       0.552705     -20.137873     -1.9243
    -7       2.338232       0.479881     -20.443262     -2.2165
    -7       7.197455       5.896274     -19.915913     -2.1495
    -7       3.560832       4.821016     -20.051432     -2.8548
    -7       4.330787       2.140904     -26.447479     -2.3156
    -7       4.629818       7.931573     -25.305624     -3.0291
    -7      -5.106487       6.059152     -28.005499     -1.2392
    -7       0.978807      -0.035416     -22.682985     -2.1483
    -7       6.840038       0.085562     -24.915937     -2.0210
    -7       2.442942       4.175828     -20.337831     -2.9588
    -7       6.170483       7.469774     -18.882479     -2.0022
    -7       2.930056       6.492579     -19.695162     -2.0526
    -7       1.097110       4.789984     -27.123491     -2.1045
    -7       3.174621      11.127111     -18.339342     -1.3397
    -7       1.280327       8.575188     -21.856302     -2.5664
    -7       2.105067      13.264111     -22.825520     -1.2939
    -7       5.515117      13.553864     -24.148779     -1.4996
    -7       6.950641      11.181944     -18.830297     -1.5294
    -7       8.163431      12.179455     -21.494768     -1.9434
    -7      -1.629914       3.969003     -29.486761     -1.1934
    -7      -0.988020       0.290665     -23.919077     -2.7448
    -7      -5.404269       1.572605     -28.192797     -1.2345
    -8      -3.067950       3.520427     -25.194767      6.9968
    -8       6.629105       9.395016     -22.444086      5.3337
    -8       5.689697       2.396468     -21.685806      5.1475
    -8       4.538551      10.437534     -21.587923      5.6399
    -8       2.261380       3.566597     -23.876156      4.4710
    -8       5.653838       9.356571     -21.247404      5.1822
    -8      -3.913060       3.365935     -22.988325      7.1486

> <s_i_glide_gridfile>
glide-grid_7RPZ_constraints

> <i_i_glide_lignum>
25

> <i_i_glide_rotatable_bonds>
7

> <r_i_docking_score>
-12.2968928238834

> <r_i_glide_ligand_efficiency>
-0.285974251718219

> <r_i_glide_ligand_efficiency_sa>
-1.00188163753406

> <r_i_glide_ligand_efficiency_ln>
-2.58272967425822

> <r_i_glide_gscore>
-12.2968928238834

> <r_i_glide_lipo>
-3.70425091584349

> <r_i_glide_hbond>
-1.00433705267579

> <r_i_glide_metal>
0

> <r_i_glide_rewards>
-0.787880619668304

> <r_i_glide_evdw>
-63.245792388916

> <r_i_glide_ecoul>
-24.4447765350342

> <r_i_glide_erotb>
0.261570880764954

> <r_i_glide_esite>
-0.232989016759858

> <r_i_glide_emodel>
0

> <r_i_glide_energy>
-87.6905689239502

> <r_i_glide_einternal>
0

> <i_i_glide_confnum>
1

> <i_i_glide_posenum>
1

> <r_i_glide_eff_state_penalty>
0

> <Total Formal Charge>
0

> <Setting>
[Custom]

> <rmsDist>
0.09

> <rmsAng>
2.8

> <Frag ID>
633719

> <Attachment Point 1 Type>
Car

> <Attachment Point 2 Type>
Car

> <Attachment Point 3 Type>
Car

> <Unstable>
false

> <Database>
ChEMBL_rare

> <Attachment Types>
Ntri,Osp3|Ntri,S|Car,Ntri

> <Frequency>
8

> <Parent Title>
CHEMBL3637900

> <TorsFreq Frag>


> <Strain 1>
0

> <TorsFreq 1>
High

> <Strain 2>
0

> <TorsFreq 2>
High

> <Strain 3>
1.4

> <TorsFreq 3>
High

> <BIF>
0.672

> <Cluster SMILES>
[Fm]c1nc([Es])c2cnc([Cf])nc2n1

> <Cluster Number>
8

> <Rank>
24

> <Favorite_cresset>
false

> <BIF%>
67

> <Score>
0.942

> <Field Score>
0.897

> <Shape Score>
0.986

> <Docking Score>
0

> <Flexibility_cresset>
5.4

> <#RB_cresset>
6

> <Radial Plot_cresset>
0.37

> <2D Sim_cresset>
0.877

> <Fragment SMILES>
[Fm]c1nc([Es])c2cnc([Cf])nc2n1

> <s_m_subgroup_title>
glide-dock_SP_rescore_Mirati_central-6-6_pv

> <s_m_subgroupid>
glide-dock_SP_rescore_Mirati_central-6-6_pv

> <b_m_subgroup_collapsed>
0

$$$$
[Fm]c1cc([Es])c2cnc([Cf])cc2n1
                    3D
 Schrodinger Suite 2022-3.
 78 85  0  0  1  0            999 V2000
   -5.0623    3.4294  -22.1322 C   0  0  0  0  0  0
   -5.2487    3.5888  -23.4639 C   0  0  0  0  0  0
   -3.7858    3.1863  -21.6258 C   0  0  0  0  0  0
   -2.8377    3.3650  -23.8632 C   0  0  0  0  0  0
   -2.6883    3.1339  -22.4583 C   0  0  0  0  0  0
   -4.1515    3.5360  -24.3411 C   0  0  0  0  0  0
   -3.3982    3.6253  -26.6096 C   0  0  0  0  0  0
    6.3634    3.0301  -21.2675 C   0  0  0  0  0  0
    6.0351    3.0234  -23.8527 C   0  0  0  0  0  0
   -4.4210    3.6526  -25.7143 C   0  0  0  0  0  0
   -1.7864    3.4303  -24.8239 C   0  0  0  0  0  0
    4.9746    7.4484  -22.1311 C   0  0  0  0  0  0
    4.3280    1.3790  -23.1662 C   0  0  0  0  0  0
    5.3086    0.9664  -22.0403 C   0  0  2  0  0  0
    6.8999    2.5816  -22.6457 C   0  0  2  0  0  0
    5.2728    1.9983  -20.8953 C   0  0  0  0  0  0
   -2.0799    3.5319  -26.1538 C   0  0  0  0  0  0
    5.3209    8.9381  -21.9422 C   0  0  1  0  0  0
    4.4715    9.6480  -20.8618 C   0  0  0  0  0  0
    3.9926   10.9443  -21.5340 C   0  0  2  0  0  0
    3.9552   10.5817  -23.0282 C   0  0  0  0  0  0
    6.2762   10.2919  -23.6852 C   0  0  0  0  0  0
    7.4040    9.4512  -23.0755 C   0  0  0  0  0  0
    6.8369    9.0976  -21.6970 C   0  0  0  0  0  0
   -1.4371    2.7811  -21.8267 C   0  0  0  0  0  0
   -0.3869    2.4632  -21.2895 C   0  0  0  0  0  0
    4.9201   11.9594  -21.3205 F   0  0  0  0  0  0
   -3.6497    2.9824  -20.3072 F   0  0  0  0  0  0
    4.5889    2.7456  -23.6780 N   0  0  0  0  0  0
    6.6823    1.1410  -22.5229 N   0  3  1  0  0  0
    5.0509    9.6186  -23.2193 N   0  3  1  0  0  0
    3.5882    7.2546  -22.4941 O   0  0  0  0  0  0
   -3.6461    3.7066  -27.9456 O   0  0  0  0  0  0
   -5.8462    3.4695  -21.5125 H   0  0  0  0  0  0
   -6.1695    3.7415  -23.8229 H   0  0  0  0  0  0
    7.1850    3.0288  -20.5361 H   0  0  0  0  0  0
    5.9465    4.0448  -21.3488 H   0  0  0  0  0  0
    6.1459    4.1070  -24.0060 H   0  0  0  0  0  0
    6.3660    2.4896  -24.7558 H   0  0  0  0  0  0
   -5.3652    3.7460  -26.0346 H   0  0  0  0  0  0
    5.6006    7.0249  -22.9303 H   0  0  0  0  0  0
    5.1622    6.9064  -21.1924 H   0  0  0  0  0  0
    4.4226    0.6791  -24.0095 H   0  0  0  0  0  0
    3.2974    1.3535  -22.7825 H   0  0  0  0  0  0
    5.0803   -0.0681  -21.7442 H   0  0  0  0  0  0
    7.9263    2.9305  -22.8321 H   0  0  0  0  0  0
    5.5160    1.5418  -19.9245 H   0  0  0  0  0  0
    4.2977    2.5031  -20.8290 H   0  0  0  0  0  0
   -1.3357    3.5623  -26.8196 H   0  0  0  0  0  0
    3.6295    9.0013  -20.5739 H   0  0  0  0  0  0
    5.0960    9.8514  -19.9794 H   0  0  0  0  0  0
    3.0691   11.3786  -21.1235 H   0  0  0  0  0  0
    2.9792   10.1374  -23.2734 H   0  0  0  0  0  0
    4.1060   11.4901  -23.6299 H   0  0  0  0  0  0
    6.3500   11.3261  -23.3177 H   0  0  0  0  0  0
    6.3654   10.2851  -24.7816 H   0  0  0  0  0  0
    7.5838    8.5672  -23.7050 H   0  0  0  0  0  0
    8.3221   10.0545  -23.0198 H   0  0  0  0  0  0
    7.0072    9.8984  -20.9623 H   0  0  0  0  0  0
    7.2474    8.1528  -21.3113 H   0  0  0  0  0  0
    0.5587    2.1770  -20.8058 H   0  0  0  0  0  0
    7.3837    0.6979  -21.8007 H   0  0  0  0  0  0
   -4.6816    3.7803  -28.3094 H   0  0  0  0  0  0
    1.8740    5.9754  -23.1922 N   0  0  0  0  0  0
    0.4228    2.3800  -24.7760 N   0  0  0  0  0  0
    3.6615    3.7861  -23.5409 C   0  0  0  0  0  0
    1.4579    4.7630  -23.6732 C   0  0  0  0  0  0
    3.1832    6.0665  -22.9145 C   0  0  0  0  0  0
   -0.3665    3.4644  -24.5134 C   0  0  0  0  0  0
    1.7156    2.5117  -24.4554 C   0  0  0  0  0  0
    2.2917    3.6528  -23.8900 C   0  0  0  0  0  0
    0.1091    4.6330  -23.9858 C   0  0  0  0  0  0
    4.0658    4.9970  -23.0675 C   0  0  0  0  0  0
    2.3157    1.7336  -24.6374 H   0  0  0  0  0  0
   -0.5125    5.4008  -23.8285 H   0  0  0  0  0  0
    5.0227    5.1232  -22.8260 H   0  0  0  0  0  0
    6.7950    0.6422  -23.4968 H   0  0  0  0  0  0
    4.7460    8.8892  -23.9841 H   0  0  0  0  0  0
  1  2  2  0  0  0
  1  3  1  0  0  0
  1 34  1  0  0  0
  2  6  1  0  0  0
  2 35  1  0  0  0
  3  5  2  0  0  0
  3 28  1  0  0  0
  4  5  1  0  0  0
  4  6  2  0  0  0
  4 11  1  0  0  0
  5 25  1  0  0  0
  6 10  1  0  0  0
  7 10  2  0  0  0
  7 17  1  0  0  0
  7 33  1  0  0  0
  8 15  1  0  0  0
  8 16  1  0  0  0
  8 36  1  0  0  0
  8 37  1  0  0  0
  9 15  1  0  0  0
  9 29  1  0  0  0
  9 38  1  0  0  0
  9 39  1  0  0  0
 10 40  1  0  0  0
 11 17  2  0  0  0
 11 69  1  0  0  0
 12 18  1  0  0  0
 12 32  1  0  0  0
 12 41  1  0  0  0
 12 42  1  0  0  0
 13 14  1  0  0  0
 13 29  1  0  0  0
 13 43  1  0  0  0
 13 44  1  0  0  0
 14 16  1  0  0  0
 14 30  1  0  0  0
 14 45  1  0  0  0
 15 30  1  0  0  0
 15 46  1  0  0  0
 16 47  1  0  0  0
 16 48  1  0  0  0
 17 49  1  0  0  0
 18 19  1  0  0  0
 18 24  1  0  0  0
 18 31  1  0  0  0
 19 20  1  0  0  0
 19 50  1  0  0  0
 19 51  1  0  0  0
 20 21  1  0  0  0
 20 27  1  0  0  0
 20 52  1  0  0  0
 21 31  1  0  0  0
 21 53  1  0  0  0
 21 54  1  0  0  0
 22 23  1  0  0  0
 22 31  1  0  0  0
 22 55  1  0  0  0
 22 56  1  0  0  0
 23 24  1  0  0  0
 23 57  1  0  0  0
 23 58  1  0  0  0
 24 59  1  0  0  0
 24 60  1  0  0  0
 25 26  3  0  0  0
 26 61  1  0  0  0
 29 66  1  0  0  0
 30 62  1  0  0  0
 30 77  1  0  0  0
 31 78  1  0  0  0
 32 68  1  0  0  0
 33 63  1  0  0  0
 64 67  1  0  0  0
 64 68  2  0  0  0
 65 69  2  0  0  0
 65 70  1  0  0  0
 66 71  1  0  0  0
 66 73  2  0  0  0
 67 71  1  0  0  0
 67 72  2  0  0  0
 68 73  1  0  0  0
 69 72  1  0  0  0
 70 71  2  0  0  0
 70 74  1  0  0  0
 72 75  1  0  0  0
 73 76  1  0  0  0
M  CHG  2  30   1  31   1
M  END
> <s_m_entry_id>
9

> <s_m_entry_name>
Mirati-central-6-6-ring-fragments.4

> <s_m_Source_Path>
/home/julia/Documents/BSC/pc_bsc/julia/results/KRAS/rescore_fragments_KRAS_Soumya/glide-dock_SP_rescore_Mirati_central-6-6

> <s_m_Source_File>
glide-dock_SP_rescore_Mirati_central-6-6_pv.maegz

> <i_m_Source_File_Index>
9

> <s_m_job_name>
epik_central-6-6

> <s_epik_input>
W0NIXSNDYzFjKEYpW2NIXVtjSF1jKGMxMilbY0hdYyhbT0hdKVtjSF1jMi1jKFtjSF0zKW5bY0hdYyhjMzQpYyhOKFtDSDJdW0NASF01NilbQ0gyXVtDQEhdKFtOSF02KVtDSDJdW0NIMl01KVtjSF1jKG40KU9bQ0gyXVtDQEBdNzhOKFtDSDJdW0NASF0oRilbQ0gyXTcpW0NIMl1bQ0gyXVtDSDJdOA==

> <s_epik_cmdline>
J2VwaWtfYXBwJywgJy1pbWFlJywgJy9zaGFyZWQvd29yay9sZGlhei9HTV9TdXBlcmx1bWluYWwvS1JBU19HMTJEL2VwaWtfY2VudHJhbC02LTYvZXBpa19jZW50cmFsLTYtNi5tYWVneicsICctb21hZScsICdlcGlrX2NlbnRyYWwtNi02LW91dC5tYWVneicsICctbnQnLCAnLW1zJywgJzEnLCAnLXBoJywgJzYuOTAnLCAnLXBodCcsICcwLjUwJywgJy1zJywgJ3dhdGVyJw==

> <r_epik_Ionization_Penalty>
  0.0386

> <r_epik_Ionization_Penalty_Charging>
  0.0326

> <r_epik_Ionization_Penalty_Neutral>
  0.0060

> <r_epik_State_Penalty>
  0.0285

> <r_epik_Charging_Adjusted_Penalty>
0.0610911575884923

> <i_epik_Tot_Q>
2

> <i_epik_Tot_abs_Q>
2

> <r_lp_tautomer_probability>
1

> <MW_cresset>
582

> <#Atoms_cresset>
43

> <SlogP_cresset>
5.5

> <TPSA_cresset>
74

> <Rof5_cresset>
2

> <_cresset_fieldpoints>
    -5       0.995170       7.697313     -23.038706    -10.9610
    -5      -0.559913       0.701447     -25.139311     -9.8873
    -5       3.767256       8.303940     -24.779209     -8.4658
    -5       3.839489      14.450285     -20.493484     -2.6188
    -5       5.351460      13.868795     -23.379595     -2.7338
    -5       7.696275      12.571873     -21.373178     -2.4209
    -5       7.006059       0.024312     -24.275589     -3.4024
    -5      -2.500229       2.332274     -29.075190     -4.8722
    -5      -2.259372       4.603343     -29.193251     -4.7393
    -6      -6.408005       3.890010     -27.973940      7.3236
    -6      -7.460194       3.947754     -25.784098      5.2112
    -6       7.405089       5.710673     -22.517700      7.2318
    -6       8.492365       0.075842     -21.005289      8.9996
    -6       2.427915       0.659909     -20.510603      2.6045
    -6       3.186847      -1.383033     -22.539656      2.1217
    -7      -2.678530       6.464578     -23.046583     -3.0127
    -7      -1.006337       0.288126     -23.965807     -2.8303
    -7       7.731190       5.785294     -22.549538     -3.5655
    -7       8.044556       0.398938     -19.976103     -1.9195
    -7       3.863326       4.946194     -19.808475     -2.8553
    -7       1.156367       4.470780     -27.262472     -2.3283
    -7       4.521054       8.026485     -25.263372     -3.2292
    -7      -5.183696       6.044379     -28.004511     -1.2394
    -7       3.085075       6.497576     -19.655874     -2.2545
    -7       1.044985      -0.071781     -22.651306     -2.1729
    -7       6.937607      -0.219712     -24.711943     -2.0066
    -7       2.294729       4.089526     -20.350740     -3.2073
    -7       6.127730       7.572782     -18.845686     -2.0150
    -7       2.363121       0.512663     -20.450289     -2.2722
    -7       3.192018      11.277124     -18.333443     -1.3383
    -7       1.280566       8.563488     -21.878374     -2.6772
    -7       2.123891      13.348162     -22.844738     -1.2939
    -7       8.154708      12.323990     -21.520367     -1.9310
    -7       6.915538      11.294661     -18.790308     -1.5323
    -7       5.467181      13.611017     -24.185282     -1.5024
    -7      -5.500941       1.566440     -28.150785     -1.2389
    -7      -1.706960       4.167905     -29.458492     -1.2063
    -7       3.221217       5.708334     -26.406717     -2.1164
    -7       4.318917       2.065772     -26.449888     -2.4611
    -8      -3.950971       3.372053     -22.988241      7.1611
    -8      -3.106370       3.526089     -25.194906      7.0345
    -8       4.569376      10.501596     -21.572905      5.6662
    -8       6.631388       9.497978     -22.412039      5.3486
    -8       2.943695       4.529841     -23.445547      5.3295
    -8       5.688360       2.387506     -21.765676      5.2412
    -8       2.280673       3.721746     -23.848368      5.1154
    -8       1.071311       3.852016     -24.042921      5.3939
    -8       5.630729       9.575426     -21.240452      5.1991
    -8       6.027008       8.299057     -21.821108      5.1015

> <s_i_glide_gridfile>
glide-grid_7RPZ_constraints

> <i_i_glide_lignum>
4

> <i_i_glide_rotatable_bonds>
7

> <r_i_docking_score>
-12.2689289336302

> <r_i_glide_ligand_efficiency>
-0.285323928689075

> <r_i_glide_ligand_efficiency_sa>
-0.99960329709799

> <r_i_glide_ligand_efficiency_ln>
-2.57685638820141

> <r_i_glide_gscore>
-12.2974289336302

> <r_i_glide_lipo>
-4.06079441673876

> <r_i_glide_hbond>
-0.986681180399877

> <r_i_glide_metal>
0

> <r_i_glide_rewards>
-0.555050854145259

> <r_i_glide_evdw>
-62.9085731506348

> <r_i_glide_ecoul>
-24.271635055542

> <r_i_glide_erotb>
0.265641672390052

> <r_i_glide_esite>
-0.174370238873353

> <r_i_glide_emodel>
0

> <r_i_glide_energy>
-87.1802082061768

> <r_i_glide_einternal>
0

> <i_i_glide_confnum>
1

> <i_i_glide_posenum>
1

> <r_i_glide_eff_state_penalty>
0.0285

> <Total Formal Charge>
0

> <Setting>
[Custom]

> <rmsDist>
0.08

> <rmsAng>
2.7

> <Frag ID>
26108

> <Attachment Point 1 Type>
Car

> <Attachment Point 2 Type>
Car

> <Attachment Point 3 Type>
Car

> <Unstable>
false

> <Database>
VEHICLe

> <Attachment Types>
Csp3|Csp3|Csp3

> <Frequency>
1

> <TorsFreq Frag>


> <Strain 1>
1.9

> <TorsFreq 1>
High

> <Strain 2>
0

> <TorsFreq 2>
Medium

> <Strain 3>
1.2

> <TorsFreq 3>
High

> <BIF>
0.838

> <Cluster SMILES>
[Fm]c1cc([Es])c2cnc([Cf])cc2n1

> <Cluster Number>
3

> <Rank>
3

> <Favorite_cresset>
false

> <BIF%>
84

> <Score>
0.971

> <Field Score>
0.955

> <Shape Score>
0.987

> <Docking Score>
0

> <Flexibility_cresset>
5.4

> <#RB_cresset>
6

> <Radial Plot_cresset>
0.4

> <2D Sim_cresset>
0.809

> <Fragment SMILES>
[Fm]c1cc([Es])c2cnc([Cf])cc2n1

> <Parent Aux1>
Training dataset hits: 0

> <Parent Aux2>
Beilstein hits: 0

> <s_m_subgroup_title>
glide-dock_SP_rescore_Mirati_central-6-6_pv

> <s_m_subgroupid>
glide-dock_SP_rescore_Mirati_central-6-6_pv

> <b_m_subgroup_collapsed>
0

$$$$
[Fm]c1nc([Es])n2[nH]nc([Cf])on2n1
                    3D
 Schrodinger Suite 2022-3.
 76 83  0  0  1  0            999 V2000
   -5.0444    3.4231  -22.1519 C   0  0  0  0  0  0
   -5.2267    3.5686  -23.4861 C   0  0  0  0  0  0
   -3.7653    3.2046  -21.6469 C   0  0  0  0  0  0
   -2.8155    3.3776  -23.8828 C   0  0  0  0  0  0
   -2.6674    3.1656  -22.4779 C   0  0  0  0  0  0
   -4.1280    3.5270  -24.3634 C   0  0  0  0  0  0
   -3.3775    3.5906  -26.6379 C   0  0  0  0  0  0
    6.3034    3.0226  -21.2394 C   0  0  0  0  0  0
    6.0204    3.1907  -23.7736 C   0  0  0  0  0  0
   -4.3961    3.6284  -25.7364 C   0  0  0  0  0  0
   -1.7688    3.4244  -24.8510 C   0  0  0  0  0  0
    4.9549    7.3979  -22.1455 C   0  0  0  0  0  0
    4.2998    1.4414  -23.2358 C   0  0  0  0  0  0
    5.2702    0.9748  -22.1196 C   0  0  2  0  0  0
    6.8735    2.6215  -22.6156 C   0  0  2  0  0  0
    5.2470    1.9387  -20.9132 C   0  0  0  0  0  0
   -2.0583    3.4893  -26.1906 C   0  0  0  0  0  0
    5.3395    8.8850  -21.9686 C   0  0  1  0  0  0
    4.5184    9.6055  -20.8712 C   0  0  0  0  0  0
    4.0169   10.9006  -21.5297 C   0  0  2  0  0  0
    3.9829   10.5556  -23.0273 C   0  0  0  0  0  0
    6.2941   10.2486  -23.7041 C   0  0  0  0  0  0
    7.4157    9.3822  -23.1231 C   0  0  0  0  0  0
    6.8601    9.0165  -21.7425 C   0  0  0  0  0  0
   -1.4121    2.8447  -21.8412 C   0  0  0  0  0  0
   -0.3574    2.5583  -21.2977 C   0  0  0  0  0  0
    4.9204   11.9334  -21.2998 F   0  0  0  0  0  0
   -3.6156    3.0132  -20.3277 F   0  0  0  0  0  0
    4.5975    2.8506  -23.5685 N   0  0  0  0  0  0
    6.6447    1.1754  -22.5865 N   0  3  1  0  0  0
    5.0671    9.5824  -23.2353 N   0  3  1  0  0  0
    3.5891    7.2535  -22.5883 O   0  0  0  0  0  0
   -3.6447    3.6772  -27.9712 O   0  0  0  0  0  0
   -5.8292    3.4570  -21.5325 H   0  0  0  0  0  0
   -6.1487    3.7031  -23.8488 H   0  0  0  0  0  0
    7.1144    3.0362  -20.4964 H   0  0  0  0  0  0
    5.8514    4.0232  -21.3072 H   0  0  0  0  0  0
    6.1296    4.2848  -23.8060 H   0  0  0  0  0  0
    6.3614    2.7598  -24.7265 H   0  0  0  0  0  0
   -5.3402    3.7195  -26.0533 H   0  0  0  0  0  0
    5.6143    6.9353  -22.8946 H   0  0  0  0  0  0
    5.0665    6.8735  -21.1850 H   0  0  0  0  0  0
    4.4362    0.8114  -24.1272 H   0  0  0  0  0  0
    3.2626    1.3538  -22.8802 H   0  0  0  0  0  0
    5.0262   -0.0703  -21.8782 H   0  0  0  0  0  0
    7.9198    2.9228  -22.7722 H   0  0  0  0  0  0
    5.5240    1.4257  -19.9804 H   0  0  0  0  0  0
    4.2613    2.4119  -20.7926 H   0  0  0  0  0  0
   -1.3136    3.4974  -26.8590 H   0  0  0  0  0  0
    3.6836    8.9622  -20.5561 H   0  0  0  0  0  0
    5.1659    9.8154  -20.0071 H   0  0  0  0  0  0
    3.0851   11.3133  -21.1157 H   0  0  0  0  0  0
    3.0035   10.1244  -23.2821 H   0  0  0  0  0  0
    4.1461   11.4692  -23.6178 H   0  0  0  0  0  0
    6.3866   11.2748  -23.3189 H   0  0  0  0  0  0
    6.3709   10.2605  -24.8014 H   0  0  0  0  0  0
    7.5735    8.5055  -23.7685 H   0  0  0  0  0  0
    8.3437    9.9705  -23.0705 H   0  0  0  0  0  0
    7.0534    9.8031  -20.9983 H   0  0  0  0  0  0
    7.2606    8.0595  -21.3768 H   0  0  0  0  0  0
    0.5931    2.3002  -20.8079 H   0  0  0  0  0  0
    7.3428    0.6830  -21.8936 H   0  0  0  0  0  0
   -4.6850    3.7569  -28.3196 H   0  0  0  0  0  0
    0.0147    4.5077  -23.7157 O   0  0  0  0  0  0
    1.4013    4.6750  -23.3607 N   0  0  1  0  0  0
    2.3358    3.6735  -23.7818 N   0  0  0  0  0  0
    1.8143    2.5914  -24.5918 N   0  0  3  0  0  0
    1.8745    5.9200  -23.0494 N   0  0  0  0  0  0
    4.1212    5.0514  -23.0755 N   0  0  0  0  0  0
    0.4715    2.5753  -24.9493 N   0  0  0  0  0  0
    3.6532    3.8501  -23.4871 C   0  0  0  0  0  0
    3.1736    6.0463  -22.9155 C   0  0  0  0  0  0
   -0.3786    3.4851  -24.5046 C   0  0  0  0  0  0
    2.3473    1.9536  -24.8805 H   0  0  0  0  0  0
    4.7498    8.8625  -24.0041 H   0  0  0  0  0  0
    6.7578    0.7414  -23.5909 H   0  0  0  0  0  0
  1  2  2  0  0  0
  1  3  1  0  0  0
  1 34  1  0  0  0
  2  6  1  0  0  0
  2 35  1  0  0  0
  3  5  2  0  0  0
  3 28  1  0  0  0
  4  5  1  0  0  0
  4  6  2  0  0  0
  4 11  1  0  0  0
  5 25  1  0  0  0
  6 10  1  0  0  0
  7 10  2  0  0  0
  7 17  1  0  0  0
  7 33  1  0  0  0
  8 15  1  0  0  0
  8 16  1  0  0  0
  8 36  1  0  0  0
  8 37  1  0  0  0
  9 15  1  0  0  0
  9 29  1  0  0  0
  9 38  1  0  0  0
  9 39  1  0  0  0
 10 40  1  0  0  0
 11 17  2  0  0  0
 11 73  1  0  0  0
 12 18  1  0  0  0
 12 32  1  0  0  0
 12 41  1  0  0  0
 12 42  1  0  0  0
 13 14  1  0  0  0
 13 29  1  0  0  0
 13 43  1  0  0  0
 13 44  1  0  0  0
 14 16  1  0  0  0
 14 30  1  0  0  0
 14 45  1  0  0  0
 15 30  1  0  0  0
 15 46  1  0  0  0
 16 47  1  0  0  0
 16 48  1  0  0  0
 17 49  1  0  0  0
 18 19  1  0  0  0
 18 24  1  0  0  0
 18 31  1  0  0  0
 19 20  1  0  0  0
 19 50  1  0  0  0
 19 51  1  0  0  0
 20 21  1  0  0  0
 20 27  1  0  0  0
 20 52  1  0  0  0
 21 31  1  0  0  0
 21 53  1  0  0  0
 21 54  1  0  0  0
 22 23  1  0  0  0
 22 31  1  0  0  0
 22 55  1  0  0  0
 22 56  1  0  0  0
 23 24  1  0  0  0
 23 57  1  0  0  0
 23 58  1  0  0  0
 24 59  1  0  0  0
 24 60  1  0  0  0
 25 26  3  0  0  0
 26 61  1  0  0  0
 29 71  1  0  0  0
 30 62  1  0  0  0
 30 76  1  0  0  0
 31 75  1  0  0  0
 32 72  1  0  0  0
 33 63  1  0  0  0
 64 65  1  0  0  0
 64 73  1  0  0  0
 65 66  1  0  0  0
 65 68  1  0  0  0
 66 67  1  0  0  0
 66 71  1  0  0  0
 67 70  1  0  0  0
 67 74  1  0  0  0
 68 72  2  0  0  0
 69 71  2  0  0  0
 69 72  1  0  0  0
 70 73  2  0  0  0
M  CHG  2  30   1  31   1
M  END
> <s_m_entry_id>
10

> <s_m_entry_name>
Mirati-central-6-6-ring-fragments.59

> <s_m_Source_Path>
/home/julia/Documents/BSC/pc_bsc/julia/results/KRAS/rescore_fragments_KRAS_Soumya/glide-dock_SP_rescore_Mirati_central-6-6

> <s_m_Source_File>
glide-dock_SP_rescore_Mirati_central-6-6_pv.maegz

> <i_m_Source_File_Index>
10

> <s_m_job_name>
epik_central-6-6

> <s_epik_input>
W0NIXSNDYzFjKEYpW2NIXVtjSF1jKGMxMilbY0hdYyhbT0hdKVtjSF1jMi1jKG8zKW5bbkhdbihuMzQpYyhOKFtDSDJdW0NASF01NilbQ0gyXVtDQEhdKFtOSF02KVtDSDJdW0NIMl01KW5jKG40KU9bQ0gyXVtDQEBdNzhOKFtDSDJdW0NASF0oRilbQ0gyXTcpW0NIMl1bQ0gyXVtDSDJdOA==

> <s_epik_cmdline>
J2VwaWtfYXBwJywgJy1pbWFlJywgJy9zaGFyZWQvd29yay9sZGlhei9HTV9TdXBlcmx1bWluYWwvS1JBU19HMTJEL2VwaWtfY2VudHJhbC02LTYvZXBpa19jZW50cmFsLTYtNi5tYWVneicsICctb21hZScsICdlcGlrX2NlbnRyYWwtNi02LW91dC5tYWVneicsICctbnQnLCAnLW1zJywgJzEnLCAnLXBoJywgJzYuOTAnLCAnLXBodCcsICcwLjUwJywgJy1zJywgJ3dhdGVyJw==

> <r_epik_Ionization_Penalty>
  0.2986

> <r_epik_Ionization_Penalty_Charging>
  0.2747

> <r_epik_Ionization_Penalty_Neutral>
  0.0239

> <r_epik_State_Penalty>
  0.0000

> <r_epik_Charging_Adjusted_Penalty>
0.274673884900867

> <i_epik_Tot_Q>
2

> <i_epik_Tot_abs_Q>
2

> <r_lp_tautomer_probability>
1

> <MW_cresset>
592

> <#Atoms_cresset>
43

> <SlogP_cresset>
2.6

> <TPSA_cresset>
124

> <Rof5_cresset>
2

> <_cresset_fieldpoints>
    -5      -2.759978       0.502158     -24.931112     -4.7225
    -5       3.983992       8.260187     -24.776104    -10.8851
    -5       5.432763      13.770281     -23.390066     -3.4979
    -5       7.711502      12.413107     -21.327486     -3.3174
    -5       0.499155       7.010744     -23.697317    -12.2772
    -5       3.684119      14.327530     -20.448843     -3.2758
    -5       7.110985       0.258912     -24.410315     -2.0094
    -5      -2.470184       5.292669     -28.800348     -4.5202
    -6      -6.406544       3.857413     -27.985884      7.3428
    -6      -7.445127       3.824328     -25.843050      5.1589
    -6       7.903565       5.711287     -22.339987      3.2400
    -6       8.360524      -0.161466     -21.185480      9.1804
    -6       8.914053       3.820837     -24.846235      2.5776
    -6       2.994720       0.404564     -25.831379      8.6577
    -6       2.359626       0.344816     -20.903517      4.0209
    -7      -3.630372       0.227178     -23.860113     -2.5117
    -7      -8.352992       4.145569     -22.373808     -1.0287
    -7       7.890706       5.770485     -22.411860     -3.1395
    -7       8.143812       0.474338     -20.105604     -1.9224
    -7       3.717550       4.857486     -19.950354     -2.5400
    -7       4.736294       7.934316     -25.300106     -2.9189
    -7       7.306336       5.858261     -20.083813     -2.1688
    -7       6.949470       0.087019     -24.922857     -1.9922
    -7       4.272807       2.413070     -26.464611     -2.0280
    -7       2.310095       0.436998     -20.551355     -2.0729
    -7       0.722897       0.492357     -23.505905     -2.7081
    -7       1.909406       5.093100     -26.042368     -2.2925
    -7       3.195906      11.155169     -18.324926     -1.3418
    -7       6.201038       7.536697     -18.872248     -1.9914
    -7       2.398529       4.155811     -20.414522     -2.5319
    -7       1.325087       8.650150     -21.768854     -2.4092
    -7       5.540298      13.582348     -24.150223     -1.5017
    -7       8.175316      12.234497     -21.515017     -1.9469
    -7       2.988187       6.606966     -19.603308     -1.8889
    -7       2.093510      13.271446     -22.832251     -1.2947
    -7      -0.544732       6.007989     -22.073135     -2.9887
    -7      -5.155951       6.064080     -27.963526     -1.2406
    -7      -5.478129       1.574531     -28.216433     -1.2388
    -7      -1.757133       3.964406     -29.556772     -1.1734
    -8      -3.930784       3.374982     -23.007551      7.1513
    -8      -3.094070       3.502389     -25.223871      6.9819
    -8       5.710740       2.363528     -21.690050      5.1156
    -8       6.655266       9.447184     -22.443029      5.3313
    -8       4.553102      10.492346     -21.582663      5.6428
    -8       5.692974       9.404051     -21.241920      5.1745

> <s_i_glide_gridfile>
glide-grid_7RPZ_constraints

> <i_i_glide_lignum>
59

> <i_i_glide_rotatable_bonds>
7

> <r_i_docking_score>
-12.2598032864901

> <r_i_glide_ligand_efficiency>
-0.285111704336978

> <r_i_glide_ligand_efficiency_sa>
-0.998859790715419

> <r_i_glide_ligand_efficiency_ln>
-2.57493971868145

> <r_i_glide_gscore>
-12.2598032864901

> <r_i_glide_lipo>
-3.4335883581326

> <r_i_glide_hbond>
-0.921851372919236

> <r_i_glide_metal>
0

> <r_i_glide_rewards>
-1.04973847143244

> <r_i_glide_evdw>
-64.9490203857422

> <r_i_glide_ecoul>
-24.1488418579102

> <r_i_glide_erotb>
0.245588006782732

> <r_i_glide_esite>
-0.230435792814878

> <r_i_glide_emodel>
0

> <r_i_glide_energy>
-89.0978622436523

> <r_i_glide_einternal>
0

> <i_i_glide_confnum>
1

> <i_i_glide_posenum>
1

> <r_i_glide_eff_state_penalty>
0

> <Total Formal Charge>
0

> <Setting>
[Custom]

> <rmsDist>
0.07

> <rmsAng>
2.7

> <Frag ID>
111654

> <Attachment Point 1 Type>
Car

> <Attachment Point 2 Type>
Car

> <Attachment Point 3 Type>
Car

> <Unstable>
false

> <Database>
VEHICLe

> <Attachment Types>
Csp3|Csp3|Csp3

> <Frequency>
1

> <TorsFreq Frag>


> <Strain 1>
0.2

> <TorsFreq 1>
High

> <Strain 2>
0

> <TorsFreq 2>
Medium

> <Strain 3>
2.1

> <TorsFreq 3>
High

> <BIF>
0.585

> <Cluster SMILES>
[Fm]c1nc([Es])n2[nH]nc([Cf])on2n1

> <Cluster Number>
20

> <Rank>
58

> <Favorite_cresset>
false

> <BIF%>
59

> <Score>
0.926

> <Field Score>
0.871

> <Shape Score>
0.98

> <Docking Score>
0

> <Flexibility_cresset>
5.9

> <#RB_cresset>
6

> <Radial Plot_cresset>
0.448

> <2D Sim_cresset>
0.69

> <Fragment SMILES>
[Fm]c1nc([Es])n2[nH]nc([Cf])on2n1

> <Parent Aux1>
Training dataset hits: 0

> <s_epik_Chemistry_Notes>
This compound has an imine and may undergo hydrolysis. This compound has a N-S or N-O group and may undergo hydrolysis at high or low pH.

> <Parent Aux2>
Beilstein hits: 0

> <s_m_subgroup_title>
glide-dock_SP_rescore_Mirati_central-6-6_pv

> <s_m_subgroupid>
glide-dock_SP_rescore_Mirati_central-6-6_pv

> <b_m_subgroup_collapsed>
0

$$$$
[Fm]c1nn2-c([nH]nc([Cf])o2)c([Es])[nH]1
                    3D
 Schrodinger Suite 2022-3.
 77 84  0  0  1  0            999 V2000
   -5.0628    3.3815  -22.1528 C   0  0  0  0  0  0
   -5.2518    3.5255  -23.4847 C   0  0  0  0  0  0
   -3.7803    3.1894  -21.6462 C   0  0  0  0  0  0
   -2.8367    3.3633  -23.8827 C   0  0  0  0  0  0
   -2.6833    3.1658  -22.4766 C   0  0  0  0  0  0
   -4.1530    3.5004  -24.3597 C   0  0  0  0  0  0
   -3.4024    3.5895  -26.6279 C   0  0  0  0  0  0
    6.4816    3.0056  -21.3094 C   0  0  0  0  0  0
    5.9860    2.9616  -23.8639 C   0  0  0  0  0  0
   -4.4233    3.6115  -25.7309 C   0  0  0  0  0  0
   -1.7883    3.4057  -24.8471 C   0  0  0  0  0  0
    4.9916    7.4797  -22.1155 C   0  0  0  0  0  0
    4.2746    1.3754  -23.0652 C   0  0  0  0  0  0
    5.2671    0.9834  -21.9471 C   0  0  2  0  0  0
    6.8963    2.4851  -22.7025 C   0  0  2  0  0  0
    5.3331    2.0737  -20.8582 C   0  0  0  0  0  0
   -2.0814    3.4836  -26.1820 C   0  0  0  0  0  0
    5.3368    8.9741  -21.9501 C   0  0  1  0  0  0
    4.4950    9.6673  -20.8540 C   0  0  0  0  0  0
    4.0037   10.9680  -21.5066 C   0  0  2  0  0  0
    3.9641   10.6302  -23.0071 C   0  0  0  0  0  0
    6.2782   10.3526  -23.6815 C   0  0  0  0  0  0
    7.4070    9.4912  -23.1088 C   0  0  0  0  0  0
    6.8545    9.1462  -21.7222 C   0  0  0  0  0  0
   -1.4223    2.8814  -21.8343 C   0  0  0  0  0  0
   -0.3646    2.6212  -21.2837 C   0  0  0  0  0  0
    4.9241   11.9845  -21.2726 F   0  0  0  0  0  0
   -3.6220    3.0125  -20.3245 F   0  0  0  0  0  0
    4.5356    2.6720  -23.7360 N   0  0  0  0  0  0
    6.6106    1.0630  -22.5209 N   0  3  1  0  0  0
    5.0571    9.6695  -23.2183 N   0  3  1  0  0  0
    3.6164    7.2805  -22.5105 O   0  0  0  0  0  0
   -3.6666    3.6963  -27.9578 O   0  0  0  0  0  0
   -5.8461    3.4010  -21.5328 H   0  0  0  0  0  0
   -6.1753    3.6479  -23.8465 H   0  0  0  0  0  0
    7.3417    2.9494  -20.6260 H   0  0  0  0  0  0
    6.1473    4.0502  -21.3928 H   0  0  0  0  0  0
    6.0645    4.0540  -23.9668 H   0  0  0  0  0  0
    6.3050    2.4812  -24.8006 H   0  0  0  0  0  0
   -5.3676    3.7022  -26.0490 H   0  0  0  0  0  0
    5.6376    7.0375  -22.8883 H   0  0  0  0  0  0
    5.1528    6.9582  -21.1605 H   0  0  0  0  0  0
    4.2932    0.6114  -23.8564 H   0  0  0  0  0  0
    3.2597    1.4453  -22.6467 H   0  0  0  0  0  0
    5.0012   -0.0124  -21.5627 H   0  0  0  0  0  0
    7.9286    2.7575  -22.9674 H   0  0  0  0  0  0
    5.5698    1.6520  -19.8702 H   0  0  0  0  0  0
    4.3972    2.6484  -20.7969 H   0  0  0  0  0  0
   -1.3390    3.4966  -26.8517 H   0  0  0  0  0  0
    3.6590    9.0133  -20.5653 H   0  0  0  0  0  0
    5.1272    9.8638  -19.9755 H   0  0  0  0  0  0
    3.0759   11.3886  -21.0915 H   0  0  0  0  0  0
    2.9873   10.1912  -23.2584 H   0  0  0  0  0  0
    4.1153   11.5483  -23.5938 H   0  0  0  0  0  0
    6.3614   11.3759  -23.2866 H   0  0  0  0  0  0
    6.3550   10.3756  -24.7786 H   0  0  0  0  0  0
    7.5564    8.6095  -23.7493 H   0  0  0  0  0  0
    8.3355   10.0799  -23.0730 H   0  0  0  0  0  0
    7.0269    9.9548  -20.9966 H   0  0  0  0  0  0
    7.2755    8.2077  -21.3323 H   0  0  0  0  0  0
    0.5887    2.3867  -20.7875 H   0  0  0  0  0  0
    7.3319    0.6006  -21.8310 H   0  0  0  0  0  0
   -4.7064    3.7795  -28.3070 H   0  0  0  0  0  0
    0.0563    4.4913  -23.7835 O   0  0  0  0  0  0
    1.4838    4.6964  -23.6492 N   0  0  0  0  0  0
    1.7882    2.4933  -24.5220 N   0  0  0  0  0  0
    4.0389    4.9966  -22.9927 N   0  0  0  0  0  0
    1.9800    5.9519  -23.2202 N   0  0  0  0  0  0
    0.4251    2.4778  -24.8709 N   0  0  0  0  0  0
    3.6183    3.7350  -23.5489 C   0  0  0  0  0  0
    3.2394    6.0781  -22.8978 C   0  0  0  0  0  0
   -0.3906    3.4401  -24.5050 C   0  0  0  0  0  0
    2.3373    3.6206  -23.8986 C   0  0  0  0  0  0
    2.4214    1.6204  -24.7390 H   0  0  0  0  0  0
    5.0651    5.1165  -22.6152 H   0  0  0  0  0  0
    4.7474    8.9493  -23.9900 H   0  0  0  0  0  0
    6.6305    0.5305  -23.4832 H   0  0  0  0  0  0
  1  2  2  0  0  0
  1  3  1  0  0  0
  1 34  1  0  0  0
  2  6  1  0  0  0
  2 35  1  0  0  0
  3  5  2  0  0  0
  3 28  1  0  0  0
  4  5  1  0  0  0
  4  6  2  0  0  0
  4 11  1  0  0  0
  5 25  1  0  0  0
  6 10  1  0  0  0
  7 10  2  0  0  0
  7 17  1  0  0  0
  7 33  1  0  0  0
  8 15  1  0  0  0
  8 16  1  0  0  0
  8 36  1  0  0  0
  8 37  1  0  0  0
  9 15  1  0  0  0
  9 29  1  0  0  0
  9 38  1  0  0  0
  9 39  1  0  0  0
 10 40  1  0  0  0
 11 17  2  0  0  0
 11 72  1  0  0  0
 12 18  1  0  0  0
 12 32  1  0  0  0
 12 41  1  0  0  0
 12 42  1  0  0  0
 13 14  1  0  0  0
 13 29  1  0  0  0
 13 43  1  0  0  0
 13 44  1  0  0  0
 14 16  1  0  0  0
 14 30  1  0  0  0
 14 45  1  0  0  0
 15 30  1  0  0  0
 15 46  1  0  0  0
 16 47  1  0  0  0
 16 48  1  0  0  0
 17 49  1  0  0  0
 18 19  1  0  0  0
 18 24  1  0  0  0
 18 31  1  0  0  0
 19 20  1  0  0  0
 19 50  1  0  0  0
 19 51  1  0  0  0
 20 21  1  0  0  0
 20 27  1  0  0  0
 20 52  1  0  0  0
 21 31  1  0  0  0
 21 53  1  0  0  0
 21 54  1  0  0  0
 22 23  1  0  0  0
 22 31  1  0  0  0
 22 55  1  0  0  0
 22 56  1  0  0  0
 23 24  1  0  0  0
 23 57  1  0  0  0
 23 58  1  0  0  0
 24 59  1  0  0  0
 24 60  1  0  0  0
 25 26  3  0  0  0
 26 61  1  0  0  0
 29 70  1  0  0  0
 30 62  1  0  0  0
 30 77  1  0  0  0
 31 76  1  0  0  0
 32 71  1  0  0  0
 33 63  1  0  0  0
 64 65  1  0  0  0
 64 72  1  0  0  0
 65 68  1  0  0  0
 65 73  1  0  0  0
 66 69  1  0  0  0
 66 73  1  0  0  0
 66 74  1  0  0  0
 67 70  1  0  0  0
 67 71  1  0  0  0
 67 75  1  0  0  0
 68 71  2  0  0  0
 69 72  2  0  0  0
 70 73  2  0  0  0
M  CHG  2  30   1  31   1
M  END
> <s_m_entry_id>
11

> <s_m_entry_name>
Mirati-central-6-6-ring-fragments.123

> <s_m_Source_Path>
/home/julia/Documents/BSC/pc_bsc/julia/results/KRAS/rescore_fragments_KRAS_Soumya/glide-dock_SP_rescore_Mirati_central-6-6

> <s_m_Source_File>
glide-dock_SP_rescore_Mirati_central-6-6_pv.maegz

> <i_m_Source_File_Index>
11

> <s_m_job_name>
epik_central-6-6

> <s_epik_input>
W0NIXSNDYzFjKEYpW2NIXVtjSF1jKGMxMilbY0hdYyhbT0hdKVtjSF1jMi1jKG8zKW5bbkhdYyhuMzQpYyhOKFtDSDJdW0NASF01NilbQ0gyXVtDQEhdKFtOSF02KVtDSDJdW0NIMl01KVtuSF1jKG40KU9bQ0gyXVtDQEBdNzhOKFtDSDJdW0NASF0oRilbQ0gyXTcpW0NIMl1bQ0gyXVtDSDJdOA==

> <s_epik_cmdline>
J2VwaWtfYXBwJywgJy1pbWFlJywgJy9zaGFyZWQvd29yay9sZGlhei9HTV9TdXBlcmx1bWluYWwvS1JBU19HMTJEL2VwaWtfY2VudHJhbC02LTYvZXBpa19jZW50cmFsLTYtNi5tYWVneicsICctb21hZScsICdlcGlrX2NlbnRyYWwtNi02LW91dC5tYWVneicsICctbnQnLCAnLW1zJywgJzEnLCAnLXBoJywgJzYuOTAnLCAnLXBodCcsICcwLjUwJywgJy1zJywgJ3dhdGVyJw==

> <r_epik_Ionization_Penalty>
  0.3060

> <r_epik_Ionization_Penalty_Charging>
  0.2754

> <r_epik_Ionization_Penalty_Neutral>
  0.0307

> <r_epik_State_Penalty>
  0.0000

> <r_epik_Charging_Adjusted_Penalty>
0.275360350189086

> <i_epik_Tot_Q>
2

> <i_epik_Tot_abs_Q>
2

> <r_lp_tautomer_probability>
1

> <MW_cresset>
591

> <#Atoms_cresset>
43

> <SlogP_cresset>
3.4

> <TPSA_cresset>
123

> <Rof5_cresset>
2

> <_cresset_fieldpoints>
    -5       0.064340       6.553224     -23.224508    -11.8818
    -5      -0.555643       0.652868     -24.847107     -8.1255
    -5       1.465649       3.233095     -26.692301     -7.5123
    -5      -2.522085       2.490928     -29.182310     -5.7039
    -5       7.663589      12.801516     -21.418165     -1.8124
    -5       5.288188      13.974489     -23.275631     -2.3212
    -5       3.772165      14.507874     -20.582602     -2.3010
    -5       6.811799      -0.085952     -24.266943     -2.8057
    -5      -2.455675       5.272548     -28.755053     -5.9794
    -6      -7.495361       3.828246     -25.834635      3.9565
    -6      -6.437202       3.883604     -28.010851      6.0973
    -6       7.242109       5.639680     -22.596174     10.0393
    -6       3.060669       0.190529     -25.691742      4.4580
    -6       3.497653      -1.586884     -22.955210      2.5349
    -6       2.772206       0.215035     -20.263918      2.1671
    -6       8.471605      -0.028045     -21.089851      9.4508
    -7      -8.446566       3.637854     -22.396875     -1.0293
    -7      -3.603989       0.205388     -23.845583     -2.5116
    -7       7.796076       5.782523     -22.635265     -3.2503
    -7       7.985543       0.264264     -20.004263     -1.9253
    -7       3.965859       5.000164     -19.951464     -2.7792
    -7       6.238414       7.645854     -18.839159     -1.9711
    -7       0.670457       0.428758     -23.360785     -2.8567
    -7       7.395252       5.972940     -20.065279     -2.0704
    -7       6.748049      -0.282054     -24.732225     -2.0084
    -7       2.407234       4.226160     -20.401964     -2.7106
    -7       2.398753       0.755666     -20.200636     -2.1415
    -7       3.205879      11.239897     -18.299561     -1.3388
    -7       1.319536       8.668808     -21.809877     -2.3928
    -7       2.125424      13.383499     -22.786341     -1.2936
    -7       1.279350       2.619344     -27.163155     -2.0907
    -7       5.506431      13.666397     -24.118784     -1.5136
    -7       4.677277       8.035822     -25.266037     -2.9611
    -7       8.185282      12.369213     -21.535650     -1.9229
    -7      -0.231954       5.956073     -22.043884     -3.1309
    -7      -5.570886       1.612888     -28.202150     -1.2373
    -7      -1.773528       3.981806     -29.538946     -1.1772
    -7      -5.137993       6.083047     -27.949713     -1.2430
    -7       4.208824       1.860504     -26.396627     -2.2459
    -7       5.491237       6.283677     -25.298330     -2.5989
    -8      -3.952059       3.350767     -23.008516      7.1581
    -8      -3.117605       3.488592     -25.217928      6.9879
    -8       5.734189       2.386969     -21.771938      5.2310
    -8       6.644494       9.570276     -22.427956      5.3550
    -8       4.593408      10.526152     -21.553251      5.6696

> <s_i_glide_gridfile>
glide-grid_7RPZ_constraints

> <i_i_glide_lignum>
123

> <i_i_glide_rotatable_bonds>
7

> <r_i_docking_score>
-12.2077113539918

> <r_i_glide_ligand_efficiency>
-0.283900264046322

> <r_i_glide_ligand_efficiency_sa>
-0.99461563315618

> <r_i_glide_ligand_efficiency_ln>
-2.56399879386577

> <r_i_glide_gscore>
-12.2077113539918

> <r_i_glide_lipo>
-3.48212768986748

> <r_i_glide_hbond>
-0.913176339643981

> <r_i_glide_metal>
0

> <r_i_glide_rewards>
-0.968591278373966

> <r_i_glide_evdw>
-64.6723785400391

> <r_i_glide_ecoul>
-23.9395198822021

> <r_i_glide_erotb>
0.247527829823936

> <r_i_glide_esite>
-0.266796966598067

> <r_i_glide_emodel>
0

> <r_i_glide_energy>
-88.6118984222412

> <r_i_glide_einternal>
0

> <i_i_glide_confnum>
1

> <i_i_glide_posenum>
1

> <r_i_glide_eff_state_penalty>
0

> <Total Formal Charge>
0

> <Setting>
[Custom]

> <rmsDist>
0.09

> <rmsAng>
3

> <Frag ID>
130452

> <Attachment Point 1 Type>
Car

> <Attachment Point 2 Type>
Car

> <Attachment Point 3 Type>
Car

> <Unstable>
false

> <Database>
VEHICLe

> <Attachment Types>
Csp3|Csp3|Csp3

> <Frequency>
1

> <TorsFreq Frag>


> <Strain 1>
0

> <TorsFreq 1>
High

> <Strain 2>
0

> <TorsFreq 2>
Medium

> <Strain 3>
1.8

> <TorsFreq 3>
High

> <BIF>
0.48

> <Cluster SMILES>
[Fm]c1nn2-c([nH]nc([Cf])o2)c([Es])[nH]1

> <Cluster Number>
45

> <Rank>
122

> <Favorite_cresset>
false

> <BIF%>
48

> <Score>
0.907

> <Field Score>
0.835

> <Shape Score>
0.979

> <Docking Score>
0

> <Flexibility_cresset>
5.6

> <#RB_cresset>
6

> <Radial Plot_cresset>
0.398

> <2D Sim_cresset>
0.686

> <Fragment SMILES>
[Fm]c1nn2-c([nH]nc([Cf])o2)c([Es])[nH]1

> <Parent Aux1>
Training dataset hits: 0

> <s_epik_Chemistry_Notes>
This compound has an imine and may undergo hydrolysis. This compound has a N-S or N-O group and may undergo hydrolysis at high or low pH.

> <Parent Aux2>
Beilstein hits: 0

> <s_m_subgroup_title>
glide-dock_SP_rescore_Mirati_central-6-6_pv

> <s_m_subgroupid>
glide-dock_SP_rescore_Mirati_central-6-6_pv

> <b_m_subgroup_collapsed>
0

$$$$
[Fm]c1nc([Es])c2c(n1)cc([Cf])nn2
                    3D
 Schrodinger Suite 2022-3.
 76 83  0  0  1  0            999 V2000
   -5.0534    3.4369  -22.1392 C   0  0  0  0  0  0
   -5.2299    3.5891  -23.4721 C   0  0  0  0  0  0
   -3.7809    3.1910  -21.6275 C   0  0  0  0  0  0
   -2.8197    3.3604  -23.8590 C   0  0  0  0  0  0
   -2.6786    3.1341  -22.4530 C   0  0  0  0  0  0
   -4.1292    3.5294  -24.3416 C   0  0  0  0  0  0
   -3.3762    3.6163  -26.6079 C   0  0  0  0  0  0
    6.2712    3.0684  -21.2454 C   0  0  0  0  0  0
    6.0161    3.2153  -23.7806 C   0  0  0  0  0  0
   -4.3980    3.6373  -25.7135 C   0  0  0  0  0  0
   -1.7710    3.4260  -24.8209 C   0  0  0  0  0  0
    4.9899    7.3762  -22.1406 C   0  0  0  0  0  0
    4.2966    1.4665  -23.2734 C   0  0  0  0  0  0
    5.2392    1.0167  -22.1249 C   0  0  2  0  0  0
    6.8547    2.6513  -22.6111 C   0  0  2  0  0  0
    5.2023    1.9939  -20.9281 C   0  0  0  0  0  0
   -2.0564    3.5283  -26.1530 C   0  0  0  0  0  0
    5.3436    8.8678  -21.9606 C   0  0  1  0  0  0
    4.4946    9.5755  -20.8762 C   0  0  0  0  0  0
    4.0042   10.8700  -21.5433 C   0  0  2  0  0  0
    3.9679   10.5101  -23.0376 C   0  0  0  0  0  0
    6.2879   10.2324  -23.6977 C   0  0  0  0  0  0
    7.4218    9.3948  -23.0968 C   0  0  0  0  0  0
    6.8576    9.0397  -21.7175 C   0  0  0  0  0  0
   -1.4271    2.7779  -21.8243 C   0  0  0  0  0  0
   -0.3776    2.4537  -21.2904 C   0  0  0  0  0  0
    4.9213   11.8935  -21.3252 F   0  0  0  0  0  0
   -3.6541    2.9795  -20.3097 F   0  0  0  0  0  0
    4.5913    2.8817  -23.5813 N   0  0  0  0  0  0
    6.6239    1.2061  -22.5677 N   0  3  1  0  0  0
    5.0669    9.5517  -23.2339 N   0  3  1  0  0  0
    3.6105    7.2301  -22.5300 O   0  0  0  0  0  0
   -3.6343    3.6980  -27.9407 O   0  0  0  0  0  0
   -5.8407    3.4800  -21.5245 H   0  0  0  0  0  0
   -6.1468    3.7400  -23.8408 H   0  0  0  0  0  0
    7.0731    3.0810  -20.4925 H   0  0  0  0  0  0
    5.8289    4.0723  -21.3268 H   0  0  0  0  0  0
    6.1314    4.3085  -23.8207 H   0  0  0  0  0  0
    6.3637    2.7750  -24.7268 H   0  0  0  0  0  0
   -5.3421    3.7208  -26.0344 H   0  0  0  0  0  0
    5.6304    6.9391  -22.9208 H   0  0  0  0  0  0
    5.1524    6.8437  -21.1919 H   0  0  0  0  0  0
    4.4747    0.8406  -24.1603 H   0  0  0  0  0  0
    3.2500    1.3584  -22.9524 H   0  0  0  0  0  0
    4.9789   -0.0216  -21.8715 H   0  0  0  0  0  0
    7.9036    2.9458  -22.7631 H   0  0  0  0  0  0
    5.4595    1.4879  -19.9859 H   0  0  0  0  0  0
    4.2176    2.4742  -20.8294 H   0  0  0  0  0  0
   -1.3085    3.5646  -26.8158 H   0  0  0  0  0  0
    3.6570    8.9251  -20.5840 H   0  0  0  0  0  0
    5.1219    9.7828  -19.9967 H   0  0  0  0  0  0
    3.0775   11.2964  -21.1317 H   0  0  0  0  0  0
    2.9937   10.0622  -23.2833 H   0  0  0  0  0  0
    4.1148   11.4202  -23.6377 H   0  0  0  0  0  0
    6.3570   11.2647  -23.3241 H   0  0  0  0  0  0
    6.3738   10.2328  -24.7943 H   0  0  0  0  0  0
    7.6012    8.5130  -23.7295 H   0  0  0  0  0  0
    8.3380   10.0014  -23.0449 H   0  0  0  0  0  0
    7.0224    9.8434  -20.9848 H   0  0  0  0  0  0
    7.2759    8.0990  -21.3301 H   0  0  0  0  0  0
    0.5677    2.1617  -20.8095 H   0  0  0  0  0  0
    7.3065    0.7210  -21.8545 H   0  0  0  0  0  0
   -4.6728    3.7671  -28.2966 H   0  0  0  0  0  0
    1.8850    6.0069  -23.1808 N   0  0  0  0  0  0
    4.1334    5.0685  -23.0814 N   0  0  0  0  0  0
    0.4787    2.4662  -24.6649 N   0  0  0  0  0  0
    1.7894    2.5685  -24.3333 N   0  0  0  0  0  0
    2.2856    3.6930  -23.8411 C   0  0  0  0  0  0
    0.1123    4.6839  -23.9715 C   0  0  0  0  0  0
    1.4380    4.8089  -23.6516 C   0  0  0  0  0  0
    3.6602    3.8925  -23.5001 C   0  0  0  0  0  0
    3.2001    6.0553  -22.9427 C   0  0  0  0  0  0
   -0.3609    3.4845  -24.4866 C   0  0  0  0  0  0
   -0.5106    5.4556  -23.8436 H   0  0  0  0  0  0
    6.7550    0.7577  -23.5636 H   0  0  0  0  0  0
    4.7630    8.8237  -24.0005 H   0  0  0  0  0  0
  1  2  2  0  0  0
  1  3  1  0  0  0
  1 34  1  0  0  0
  2  6  1  0  0  0
  2 35  1  0  0  0
  3  5  2  0  0  0
  3 28  1  0  0  0
  4  5  1  0  0  0
  4  6  2  0  0  0
  4 11  1  0  0  0
  5 25  1  0  0  0
  6 10  1  0  0  0
  7 10  2  0  0  0
  7 17  1  0  0  0
  7 33  1  0  0  0
  8 15  1  0  0  0
  8 16  1  0  0  0
  8 36  1  0  0  0
  8 37  1  0  0  0
  9 15  1  0  0  0
  9 29  1  0  0  0
  9 38  1  0  0  0
  9 39  1  0  0  0
 10 40  1  0  0  0
 11 17  2  0  0  0
 11 73  1  0  0  0
 12 18  1  0  0  0
 12 32  1  0  0  0
 12 41  1  0  0  0
 12 42  1  0  0  0
 13 14  1  0  0  0
 13 29  1  0  0  0
 13 43  1  0  0  0
 13 44  1  0  0  0
 14 16  1  0  0  0
 14 30  1  0  0  0
 14 45  1  0  0  0
 15 30  1  0  0  0
 15 46  1  0  0  0
 16 47  1  0  0  0
 16 48  1  0  0  0
 17 49  1  0  0  0
 18 19  1  0  0  0
 18 24  1  0  0  0
 18 31  1  0  0  0
 19 20  1  0  0  0
 19 50  1  0  0  0
 19 51  1  0  0  0
 20 21  1  0  0  0
 20 27  1  0  0  0
 20 52  1  0  0  0
 21 31  1  0  0  0
 21 53  1  0  0  0
 21 54  1  0  0  0
 22 23  1  0  0  0
 22 31  1  0  0  0
 22 55  1  0  0  0
 22 56  1  0  0  0
 23 24  1  0  0  0
 23 57  1  0  0  0
 23 58  1  0  0  0
 24 59  1  0  0  0
 24 60  1  0  0  0
 25 26  3  0  0  0
 26 61  1  0  0  0
 29 71  1  0  0  0
 30 62  1  0  0  0
 30 75  1  0  0  0
 31 76  1  0  0  0
 32 72  1  0  0  0
 33 63  1  0  0  0
 64 70  1  0  0  0
 64 72  2  0  0  0
 65 71  2  0  0  0
 65 72  1  0  0  0
 66 67  1  0  0  0
 66 73  2  0  0  0
 67 68  2  0  0  0
 68 70  1  0  0  0
 68 71  1  0  0  0
 69 70  2  0  0  0
 69 73  1  0  0  0
 69 74  1  0  0  0
M  CHG  2  30   1  31   1
M  END
> <s_m_entry_id>
12

> <s_m_entry_name>
Mirati-central-6-6-ring-fragments.21

> <s_m_Source_Path>
/home/julia/Documents/BSC/pc_bsc/julia/results/KRAS/rescore_fragments_KRAS_Soumya/glide-dock_SP_rescore_Mirati_central-6-6

> <s_m_Source_File>
glide-dock_SP_rescore_Mirati_central-6-6_pv.maegz

> <i_m_Source_File_Index>
12

> <s_m_job_name>
epik_central-6-6

> <s_epik_input>
W0NIXSNDYzFjKEYpW2NIXVtjSF1jKGMxMilbY0hdYyhbT0hdKVtjSF1jMi1jKG5uMylbY0hdYyhjMzQpbmMoT1tDSDJdW0NAQF01Nk4oW0NIMl1bQ0BIXShGKVtDSDJdNSlbQ0gyXVtDSDJdW0NIMl02KW5jNE4oW0NIMl1bQ0BIXTc4KVtDSDJdW0NASF0oW05IXTgpW0NIMl1bQ0gyXTc=

> <s_epik_cmdline>
J2VwaWtfYXBwJywgJy1pbWFlJywgJy9zaGFyZWQvd29yay9sZGlhei9HTV9TdXBlcmx1bWluYWwvS1JBU19HMTJEL2VwaWtfY2VudHJhbC02LTYvZXBpa19jZW50cmFsLTYtNi5tYWVneicsICctb21hZScsICdlcGlrX2NlbnRyYWwtNi02LW91dC5tYWVneicsICctbnQnLCAnLW1zJywgJzEnLCAnLXBoJywgJzYuOTAnLCAnLXBodCcsICcwLjUwJywgJy1zJywgJ3dhdGVyJw==

> <r_epik_Ionization_Penalty>
  0.0558

> <r_epik_Ionization_Penalty_Charging>
  0.0523

> <r_epik_Ionization_Penalty_Neutral>
  0.0035

> <r_epik_State_Penalty>
  0.0000

> <r_epik_Charging_Adjusted_Penalty>
0.0523342448120783

> <i_epik_Tot_Q>
2

> <i_epik_Tot_abs_Q>
2

> <r_lp_tautomer_probability>
1

> <MW_cresset>
584

> <#Atoms_cresset>
43

> <SlogP_cresset>
4.3

> <TPSA_cresset>
100

> <Rof5_cresset>
1

> <_cresset_fieldpoints>
    -5      -2.474747       6.585557     -25.789379     -2.7958
    -5       1.061452       0.776635     -25.103642     -9.7009
    -5       4.152675       8.277565     -24.846195     -8.1552
    -5       7.720342      12.465414     -21.365839     -2.7089
    -5      -2.524949       2.335994     -29.123106     -3.7936
    -5       5.475512      13.781155     -23.375719     -2.7704
    -5       4.043110      14.410446     -20.347420     -2.5624
    -5       1.121319       7.863642     -22.938265     -7.8817
    -5       6.982592       0.271640     -24.407249     -5.0959
    -6      -7.414305       3.983945     -25.794416      6.1798
    -6      -6.391234       3.906111     -27.942951      8.2830
    -6       7.802513       5.808972     -22.243940      3.4792
    -6       8.361801      -0.004532     -21.066353      7.8896
    -6       2.349123       0.735820     -20.449551      1.9234
    -7      -8.116192       4.882700     -22.330149     -1.0279
    -7      -2.714537       6.469632     -23.064274     -3.0135
    -7       0.819634       0.488743     -23.551266     -2.9851
    -7       7.885829       5.797977     -22.399294     -3.2059
    -7       8.063100       0.503580     -20.051172     -1.9189
    -7       6.175554       7.522629     -18.854959     -1.9943
    -7       4.629231       7.951873     -25.295315     -3.0263
    -7       1.577370       2.399287     -26.824184     -2.2193
    -7       3.003544       6.489234     -19.680544     -2.0802
    -7       2.315152       0.383262     -20.672983     -2.1939
    -7       7.028075       0.115169     -24.884148     -1.9954
    -7       2.331188       4.182907     -20.359243     -2.9403
    -7       3.601136       4.867406     -20.025658     -2.8251
    -7       3.188606      11.174076     -18.345823     -1.3401
    -7       1.280892       8.517408     -21.862417     -2.6549
    -7       2.106403      13.255116     -22.854015     -1.2943
    -7       4.054740       2.336957     -26.426535     -2.1154
    -7       8.159940      12.276081     -21.537941     -1.9301
    -7       5.397038       6.453920     -25.393621     -2.5714
    -7       6.937516      11.225430     -18.809465     -1.5330
    -7       5.479692      13.547770     -24.189495     -1.5045
    -7      -3.655061       0.218303     -23.848116     -2.5154
    -7      -5.483932       1.563560     -28.156698     -1.2410
    -7      -1.725506       4.296923     -29.443361     -1.1947
    -7      -5.154738       6.048072     -27.987825     -1.2426
    -8      -3.936970       3.371986     -22.989965      7.1695
    -8      -3.086731       3.517532     -25.196028      7.0378
    -8      -1.837678       3.329299     -23.501780      5.6067
    -8       6.650832       9.463387     -22.429354      5.3467
    -8       4.577786      10.441078     -21.585886      5.6612
    -8       5.677323       2.408107     -21.707018      5.1249
    -8       5.641428       9.535879     -21.263388      5.1971
    -8       2.394849       4.288262     -23.420156      3.1772
    -8       0.183002       4.445909     -23.942839      4.3450

> <s_i_glide_gridfile>
glide-grid_7RPZ_constraints

> <i_i_glide_lignum>
21

> <i_i_glide_rotatable_bonds>
7

> <r_i_docking_score>
-12.1755295021395

> <r_i_glide_ligand_efficiency>
-0.283151848886965

> <r_i_glide_ligand_efficiency_sa>
-0.991993636941812

> <r_i_glide_ligand_efficiency_ln>
-2.55723960478101

> <r_i_glide_gscore>
-12.1755295021395

> <r_i_glide_lipo>
-4.07550224185893

> <r_i_glide_hbond>
-0.86518518712632

> <r_i_glide_metal>
0

> <r_i_glide_rewards>
-0.552179018983289

> <r_i_glide_evdw>
-64.5192184448242

> <r_i_glide_ecoul>
-22.7954578399658

> <r_i_glide_erotb>
0.261570880764954

> <r_i_glide_esite>
-0.298954336699823

> <r_i_glide_emodel>
0

> <r_i_glide_energy>
-87.31467628479

> <r_i_glide_einternal>
0

> <i_i_glide_confnum>
1

> <i_i_glide_posenum>
1

> <r_i_glide_eff_state_penalty>
0

> <Total Formal Charge>
0

> <Setting>
[Custom]

> <rmsDist>
0.06

> <rmsAng>
2.6

> <Frag ID>
21438

> <Attachment Point 1 Type>
Car

> <Attachment Point 2 Type>
Car

> <Attachment Point 3 Type>
Car

> <Unstable>
false

> <Database>
VEHICLe

> <Attachment Types>
Csp3|Csp3|Csp3

> <Frequency>
1

> <TorsFreq Frag>


> <Strain 1>
0

> <TorsFreq 1>
High

> <Strain 2>
1.1

> <TorsFreq 2>
High

> <Strain 3>
2.2

> <TorsFreq 3>
High

> <BIF>
0.688

> <Cluster SMILES>
[Fm]c1nc([Es])c2c(n1)cc([Cf])nn2

> <Cluster Number>
6

> <Rank>
20

> <Favorite_cresset>
false

> <BIF%>
69

> <Score>
0.944

> <Field Score>
0.901

> <Shape Score>
0.988

> <Docking Score>
0

> <Flexibility_cresset>
5.4

> <#RB_cresset>
6

> <Radial Plot_cresset>
0.37

> <2D Sim_cresset>
0.827

> <Fragment SMILES>
[Fm]c1nc([Es])c2c(n1)cc([Cf])nn2

> <Parent Aux1>
Training dataset hits: 0

> <Parent Aux2>
Beilstein hits: 0

> <s_m_subgroup_title>
glide-dock_SP_rescore_Mirati_central-6-6_pv

> <s_m_subgroupid>
glide-dock_SP_rescore_Mirati_central-6-6_pv

> <b_m_subgroup_collapsed>
0

$$$$
[Fm]c1cc([Es])n2[nH]nc([Cf])on2n1
                    3D
 Schrodinger Suite 2022-3.
 77 84  0  0  1  0            999 V2000
   -5.0481    3.4378  -22.1478 C   0  0  0  0  0  0
   -5.2405    3.5922  -23.4791 C   0  0  0  0  0  0
   -3.7718    3.2018  -21.6462 C   0  0  0  0  0  0
   -2.8312    3.3753  -23.8831 C   0  0  0  0  0  0
   -2.6747    3.1569  -22.4797 C   0  0  0  0  0  0
   -4.1457    3.5379  -24.3580 C   0  0  0  0  0  0
   -3.4089    3.5921  -26.6358 C   0  0  0  0  0  0
    6.3670    2.9814  -21.2789 C   0  0  0  0  0  0
    6.0508    2.9994  -23.8661 C   0  0  0  0  0  0
   -4.4236    3.6426  -25.7288 C   0  0  0  0  0  0
   -1.7892    3.4128  -24.8591 C   0  0  0  0  0  0
    4.9772    7.4850  -22.1145 C   0  0  0  0  0  0
    4.2998    1.3823  -23.2059 C   0  0  0  0  0  0
    5.2659    0.9503  -22.0724 C   0  0  2  0  0  0
    6.9012    2.5353  -22.6572 C   0  0  2  0  0  0
    5.2428    1.9801  -20.9260 C   0  0  0  0  0  0
   -2.0894    3.4810  -26.1974 C   0  0  0  0  0  0
    5.3406    8.9726  -21.9231 C   0  0  1  0  0  0
    4.5109    9.6974  -20.8367 C   0  0  0  0  0  0
    4.0131   10.9837  -21.5177 C   0  0  2  0  0  0
    3.9723   10.6133  -23.0097 C   0  0  0  0  0  0
    6.2882   10.3098  -23.6838 C   0  0  0  0  0  0
    7.4172    9.4736  -23.0707 C   0  0  0  0  0  0
    6.8584    9.1196  -21.6887 C   0  0  0  0  0  0
   -1.4184    2.8171  -21.8521 C   0  0  0  0  0  0
   -0.3639    2.5124  -21.3185 C   0  0  0  0  0  0
    4.9229   12.0173  -21.3132 F   0  0  0  0  0  0
   -3.6331    2.9991  -20.3273 F   0  0  0  0  0  0
    4.6002    2.7492  -23.6882 N   0  0  0  0  0  0
    6.6501    1.1003  -22.5356 N   0  3  1  0  0  0
    5.0646    9.6461  -23.2014 N   0  3  1  0  0  0
    3.5981    7.3028  -22.5112 O   0  0  0  0  0  0
   -3.6786    3.6811  -27.9671 O   0  0  0  0  0  0
   -5.8275    3.4800  -21.5241 H   0  0  0  0  0  0
   -6.1629    3.7425  -23.8346 H   0  0  0  0  0  0
    7.1819    2.9461  -20.5409 H   0  0  0  0  0  0
    5.9812    4.0090  -21.3503 H   0  0  0  0  0  0
    6.1861    4.0807  -24.0160 H   0  0  0  0  0  0
    6.3731    2.4608  -24.7695 H   0  0  0  0  0  0
   -5.3691    3.7464  -26.0403 H   0  0  0  0  0  0
    5.6167    7.0490  -22.8962 H   0  0  0  0  0  0
    5.1337    6.9447  -21.1692 H   0  0  0  0  0  0
    4.3944    0.6871  -24.0531 H   0  0  0  0  0  0
    3.2654    1.3661  -22.8321 H   0  0  0  0  0  0
    5.0132   -0.0808  -21.7843 H   0  0  0  0  0  0
    7.9339    2.8666  -22.8409 H   0  0  0  0  0  0
    5.4586    1.5145  -19.9530 H   0  0  0  0  0  0
    4.2814    2.5120  -20.8728 H   0  0  0  0  0  0
   -1.3503    3.4869  -26.8715 H   0  0  0  0  0  0
    3.6768    9.0532  -20.5218 H   0  0  0  0  0  0
    5.1525    9.9162  -19.9704 H   0  0  0  0  0  0
    3.0850   11.4068  -21.1059 H   0  0  0  0  0  0
    2.9948   10.1701  -23.2509 H   0  0  0  0  0  0
    4.1243   11.5181  -23.6164 H   0  0  0  0  0  0
    6.3675   11.3483  -23.3300 H   0  0  0  0  0  0
    6.3703   10.2888  -24.7805 H   0  0  0  0  0  0
    7.5986    8.5875  -23.6967 H   0  0  0  0  0  0
    8.3342   10.0787  -23.0173 H   0  0  0  0  0  0
    7.0402    9.9165  -20.9526 H   0  0  0  0  0  0
    7.2645    8.1703  -21.3092 H   0  0  0  0  0  0
    0.5865    2.2378  -20.8376 H   0  0  0  0  0  0
    7.3331    0.6449  -21.8034 H   0  0  0  0  0  0
   -4.7192    3.7687  -28.3128 H   0  0  0  0  0  0
    0.0271    4.4943  -23.7731 O   0  0  0  0  0  0
    1.4424    4.7386  -23.6241 N   0  0  3  0  0  0
    1.7962    2.5370  -24.6381 N   0  0  3  0  0  0
    2.3512    3.6560  -23.9072 N   0  0  0  0  0  0
    1.9205    5.9805  -23.1879 N   0  0  0  0  0  0
    0.4438    2.5291  -24.9680 N   0  0  0  0  0  0
    3.6812    3.7930  -23.5601 C   0  0  0  0  0  0
    3.1976    6.1092  -22.9237 C   0  0  0  0  0  0
   -0.3932    3.4631  -24.5364 C   0  0  0  0  0  0
    4.0910    4.9964  -23.0830 C   0  0  0  0  0  0
    2.3122    1.8694  -24.8885 H   0  0  0  0  0  0
    5.1437    5.1469  -22.8015 H   0  0  0  0  0  0
    4.7523    8.9120  -23.9587 H   0  0  0  0  0  0
    6.7678    0.5994  -23.5078 H   0  0  0  0  0  0
  1  2  2  0  0  0
  1  3  1  0  0  0
  1 34  1  0  0  0
  2  6  1  0  0  0
  2 35  1  0  0  0
  3  5  2  0  0  0
  3 28  1  0  0  0
  4  5  1  0  0  0
  4  6  2  0  0  0
  4 11  1  0  0  0
  5 25  1  0  0  0
  6 10  1  0  0  0
  7 10  2  0  0  0
  7 17  1  0  0  0
  7 33  1  0  0  0
  8 15  1  0  0  0
  8 16  1  0  0  0
  8 36  1  0  0  0
  8 37  1  0  0  0
  9 15  1  0  0  0
  9 29  1  0  0  0
  9 38  1  0  0  0
  9 39  1  0  0  0
 10 40  1  0  0  0
 11 17  2  0  0  0
 11 72  1  0  0  0
 12 18  1  0  0  0
 12 32  1  0  0  0
 12 41  1  0  0  0
 12 42  1  0  0  0
 13 14  1  0  0  0
 13 29  1  0  0  0
 13 43  1  0  0  0
 13 44  1  0  0  0
 14 16  1  0  0  0
 14 30  1  0  0  0
 14 45  1  0  0  0
 15 30  1  0  0  0
 15 46  1  0  0  0
 16 47  1  0  0  0
 16 48  1  0  0  0
 17 49  1  0  0  0
 18 19  1  0  0  0
 18 24  1  0  0  0
 18 31  1  0  0  0
 19 20  1  0  0  0
 19 50  1  0  0  0
 19 51  1  0  0  0
 20 21  1  0  0  0
 20 27  1  0  0  0
 20 52  1  0  0  0
 21 31  1  0  0  0
 21 53  1  0  0  0
 21 54  1  0  0  0
 22 23  1  0  0  0
 22 31  1  0  0  0
 22 55  1  0  0  0
 22 56  1  0  0  0
 23 24  1  0  0  0
 23 57  1  0  0  0
 23 58  1  0  0  0
 24 59  1  0  0  0
 24 60  1  0  0  0
 25 26  3  0  0  0
 26 61  1  0  0  0
 29 70  1  0  0  0
 30 62  1  0  0  0
 30 77  1  0  0  0
 31 76  1  0  0  0
 32 71  1  0  0  0
 33 63  1  0  0  0
 64 65  1  0  0  0
 64 72  1  0  0  0
 65 67  1  0  0  0
 65 68  1  0  0  0
 66 67  1  0  0  0
 66 69  1  0  0  0
 66 74  1  0  0  0
 67 70  1  0  0  0
 68 71  2  0  0  0
 69 72  2  0  0  0
 70 73  2  0  0  0
 71 73  1  0  0  0
 73 75  1  0  0  0
M  CHG  2  30   1  31   1
M  END
> <s_m_entry_id>
13

> <s_m_entry_name>
Mirati-central-6-6-ring-fragments.82

> <s_m_Source_Path>
/home/julia/Documents/BSC/pc_bsc/julia/results/KRAS/rescore_fragments_KRAS_Soumya/glide-dock_SP_rescore_Mirati_central-6-6

> <s_m_Source_File>
glide-dock_SP_rescore_Mirati_central-6-6_pv.maegz

> <i_m_Source_File_Index>
13

> <s_m_job_name>
epik_central-6-6

> <s_epik_input>
W0NIXSNDYzFjKEYpW2NIXVtjSF1jKGMxMilbY0hdYyhbT0hdKVtjSF1jMi1jKG8zKW5bbkhdbihuMzQpYyhOKFtDSDJdW0NASF01NilbQ0gyXVtDQEhdKFtOSF02KVtDSDJdW0NIMl01KVtjSF1jKG40KU9bQ0gyXVtDQEBdNzhOKFtDSDJdW0NASF0oRilbQ0gyXTcpW0NIMl1bQ0gyXVtDSDJdOA==

> <s_epik_cmdline>
J2VwaWtfYXBwJywgJy1pbWFlJywgJy9zaGFyZWQvd29yay9sZGlhei9HTV9TdXBlcmx1bWluYWwvS1JBU19HMTJEL2VwaWtfY2VudHJhbC02LTYvZXBpa19jZW50cmFsLTYtNi5tYWVneicsICctb21hZScsICdlcGlrX2NlbnRyYWwtNi02LW91dC5tYWVneicsICctbnQnLCAnLW1zJywgJzEnLCAnLXBoJywgJzYuOTAnLCAnLXBodCcsICcwLjUwJywgJy1zJywgJ3dhdGVyJw==

> <r_epik_Ionization_Penalty>
  0.1996

> <r_epik_Ionization_Penalty_Charging>
  0.1769

> <r_epik_Ionization_Penalty_Neutral>
  0.0227

> <r_epik_State_Penalty>
  0.0000

> <r_epik_Charging_Adjusted_Penalty>
0.176911789404547

> <i_epik_Tot_Q>
2

> <i_epik_Tot_abs_Q>
2

> <r_lp_tautomer_probability>
1

> <MW_cresset>
591

> <#Atoms_cresset>
43

> <SlogP_cresset>
3.2

> <TPSA_cresset>
112

> <Rof5_cresset>
2

> <_cresset_fieldpoints>
    -5       0.408893       7.007854     -23.226515    -13.7825
    -5      -2.435780       0.471313     -24.739317     -5.4994
    -5       3.622569      14.421345     -20.578651     -3.1210
    -5       7.698426      12.574352     -21.371405     -2.8740
    -5       5.294075      13.879133     -23.417871     -3.2459
    -5       7.066947      -0.025214     -24.259192     -1.8227
    -5      -2.485356       5.338820     -28.742994     -5.0213
    -6      -6.443324       3.870349     -27.980375      6.9670
    -6      -7.476572       3.873431     -25.825014      4.7751
    -6       7.431656       5.669989     -22.554855      6.7181
    -6       8.404581      -0.047836     -21.020002      9.5716
    -6       3.000226       0.281540     -25.773737      7.7537
    -7      -8.282387       4.460892     -22.305510     -1.0291
    -7      -0.287439       5.909523     -21.986910     -3.0564
    -7       7.721084       5.770157     -22.535234     -3.5343
    -7       7.939244       0.278417     -19.972359     -1.9139
    -7       3.980208       4.966627     -19.774332     -2.6497
    -7       1.980150       4.921098     -26.204481     -2.4911
    -7       0.704829       0.448457     -23.514547     -2.6821
    -7       6.913680      -0.271301     -24.715956     -1.9845
    -7       4.229018       2.309464     -26.481050     -2.1569
    -7       2.353461       0.481857     -20.457766     -2.0907
    -7       2.315124       4.147001     -20.376848     -2.5990
    -7       6.144875       7.615865     -18.828352     -2.0045
    -7       3.217789      11.322855     -18.317240     -1.3395
    -7       1.334589       8.686018     -21.734835     -2.4395
    -7       2.089206      13.341372     -22.834158     -1.2939
    -7       5.486300      13.635395     -24.191095     -1.4982
    -7       4.644248       8.038586     -25.274137     -3.0910
    -7       8.159788      12.352341     -21.521341     -1.9422
    -7       6.987381      11.397585     -18.838060     -1.5274
    -7       3.091008       6.604373     -19.611879     -2.0841
    -7      -5.630751       1.633538     -28.163267     -1.2378
    -7      -1.796946       3.951519     -29.561579     -1.1756
    -7      -5.123716       6.084119     -27.989851     -1.2416
    -7      -3.677856       0.231674     -23.863619     -2.5161
    -8      -3.942233       3.382108     -23.004839      7.1521
    -8      -3.117105       3.502689     -25.224642      6.9786
    -8       5.693798       2.361475     -21.771563      5.1993
    -8       4.571081      10.556986     -21.556250      5.6488
    -8       6.649242       9.518061     -22.400148      5.3409
    -8       4.142859       5.017347     -23.048719      3.6717
    -8       6.027705       8.330187     -21.789598      5.0880
    -8       5.677902       9.540926     -21.210276      5.1920
    -8       4.693290       5.935471     -22.635626      3.3975

> <s_i_glide_gridfile>
glide-grid_7RPZ_constraints

> <i_i_glide_lignum>
82

> <i_i_glide_rotatable_bonds>
7

> <r_i_docking_score>
-12.1678159519805

> <r_i_glide_ligand_efficiency>
-0.282972463999547

> <r_i_glide_ligand_efficiency_sa>
-0.991365180275957

> <r_i_glide_ligand_efficiency_ln>
-2.55561951951436

> <r_i_glide_gscore>
-12.1678159519805

> <r_i_glide_lipo>
-3.55138518331808

> <r_i_glide_hbond>
-0.942424027622657

> <r_i_glide_metal>
0

> <r_i_glide_rewards>
-0.965438102815839

> <r_i_glide_evdw>
-64.7794494628906

> <r_i_glide_ecoul>
-23.6482048034668

> <r_i_glide_erotb>
0.247527829823936

> <r_i_glide_esite>
-0.169893274383325

> <r_i_glide_emodel>
0

> <r_i_glide_energy>
-88.4276542663574

> <r_i_glide_einternal>
0

> <i_i_glide_confnum>
1

> <i_i_glide_posenum>
1

> <r_i_glide_eff_state_penalty>
0

> <Total Formal Charge>
0

> <Setting>
[Custom]

> <rmsDist>
0.1

> <rmsAng>
3.3

> <Frag ID>
558

> <Attachment Point 1 Type>
Car

> <Attachment Point 2 Type>
Car

> <Attachment Point 3 Type>
Car

> <Unstable>
false

> <Database>
VEHICLe

> <Attachment Types>
Csp3|Csp3|Csp3

> <Frequency>
1

> <TorsFreq Frag>


> <Strain 1>
1.5

> <TorsFreq 1>
High

> <Strain 2>
0

> <TorsFreq 2>
Medium

> <Strain 3>
3

> <TorsFreq 3>
High

> <BIF>
0.539

> <Cluster SMILES>
[Fm]c1cc([Es])n2[nH]nc([Cf])on2n1

> <Cluster Number>
29

> <Rank>
81

> <Favorite_cresset>
false

> <BIF%>
54

> <Score>
0.918

> <Field Score>
0.856

> <Shape Score>
0.979

> <Docking Score>
0

> <Flexibility_cresset>
5.9

> <#RB_cresset>
6

> <Radial Plot_cresset>
0.497

> <2D Sim_cresset>
0.654

> <Fragment SMILES>
[Fm]c1cc([Es])n2[nH]nc([Cf])on2n1

> <Parent Aux1>
Training dataset hits: 0

> <s_epik_Chemistry_Notes>
This compound has an imine and may undergo hydrolysis. This compound has a N-S or N-O group and may undergo hydrolysis at high or low pH.

> <Parent Aux2>
Beilstein hits: 0

> <s_m_subgroup_title>
glide-dock_SP_rescore_Mirati_central-6-6_pv

> <s_m_subgroupid>
glide-dock_SP_rescore_Mirati_central-6-6_pv

> <b_m_subgroup_collapsed>
0

$$$$
[Fm]c1nn2-c([nH]nc([Cf])[nH]2)c([Es])o1
                    3D
 Schrodinger Suite 2022-3.
 77 84  0  0  1  0            999 V2000
   -5.0743    3.4210  -22.1380 C   0  0  0  0  0  0
   -5.2673    3.5687  -23.4697 C   0  0  0  0  0  0
   -3.7966    3.1855  -21.6334 C   0  0  0  0  0  0
   -2.8613    3.3391  -23.8726 C   0  0  0  0  0  0
   -2.7004    3.1272  -22.4668 C   0  0  0  0  0  0
   -4.1746    3.5084  -24.3506 C   0  0  0  0  0  0
   -3.4334    3.5957  -26.6212 C   0  0  0  0  0  0
    6.2834    3.1561  -21.2604 C   0  0  0  0  0  0
    5.9939    3.1713  -23.8056 C   0  0  0  0  0  0
   -4.4530    3.6229  -25.7221 C   0  0  0  0  0  0
   -1.8208    3.3981  -24.8449 C   0  0  0  0  0  0
    5.0527    7.3823  -22.1041 C   0  0  0  0  0  0
    4.3274    1.4592  -23.1381 C   0  0  0  0  0  0
    5.3081    1.0479  -22.0172 C   0  0  2  0  0  0
    6.8589    2.6947  -22.6153 C   0  0  2  0  0  0
    5.2631    2.0636  -20.8603 C   0  0  0  0  0  0
   -2.1143    3.4965  -26.1769 C   0  0  0  0  0  0
    5.3881    8.8825  -21.9430 C   0  0  1  0  0  0
    4.5432    9.5925  -20.8569 C   0  0  0  0  0  0
    4.0287   10.8780  -21.5264 C   0  0  2  0  0  0
    3.9920   10.5126  -23.0193 C   0  0  0  0  0  0
    6.3063   10.2453  -23.7009 C   0  0  0  0  0  0
    7.4480    9.4206  -23.0996 C   0  0  0  0  0  0
    6.9009    9.0703  -21.7136 C   0  0  0  0  0  0
   -1.4404    2.7938  -21.8432 C   0  0  0  0  0  0
   -0.3842    2.4912  -21.3080 C   0  0  0  0  0  0
    4.9237   11.9243  -21.3165 F   0  0  0  0  0  0
   -3.6575    2.9938  -20.3097 F   0  0  0  0  0  0
    4.5631    2.7934  -23.7463 N   0  0  0  0  0  0
    6.6704    1.2489  -22.5104 N   0  3  1  0  0  0
    5.0953    9.5590  -23.2190 N   0  3  1  0  0  0
    3.6776    7.2205  -22.4977 O   0  0  0  0  0  0
   -3.6804    3.6897  -27.9555 O   0  0  0  0  0  0
   -5.8546    3.4646  -21.5152 H   0  0  0  0  0  0
   -6.1892    3.7201  -23.8271 H   0  0  0  0  0  0
    7.0974    3.2380  -20.5251 H   0  0  0  0  0  0
    5.7994    4.1363  -21.3823 H   0  0  0  0  0  0
    6.0224    4.2694  -23.8630 H   0  0  0  0  0  0
    6.3886    2.7450  -24.7396 H   0  0  0  0  0  0
   -5.3974    3.7180  -26.0386 H   0  0  0  0  0  0
    5.7023    6.9421  -22.8750 H   0  0  0  0  0  0
    5.2168    6.8651  -21.1473 H   0  0  0  0  0  0
    4.3855    0.7318  -23.9612 H   0  0  0  0  0  0
    3.3025    1.4803  -22.7391 H   0  0  0  0  0  0
    5.0934    0.0092  -21.7255 H   0  0  0  0  0  0
    7.8962    3.0181  -22.7869 H   0  0  0  0  0  0
    5.5671    1.6101  -19.9053 H   0  0  0  0  0  0
    4.2662    2.5154  -20.7507 H   0  0  0  0  0  0
   -1.3724    3.5262  -26.8474 H   0  0  0  0  0  0
    3.7154    8.9366  -20.5494 H   0  0  0  0  0  0
    5.1775    9.8151  -19.9862 H   0  0  0  0  0  0
    3.0969   11.2884  -21.1100 H   0  0  0  0  0  0
    3.0200   10.0583  -23.2618 H   0  0  0  0  0  0
    4.1328   11.4214  -23.6228 H   0  0  0  0  0  0
    6.3723   11.2818  -23.3384 H   0  0  0  0  0  0
    6.3848   10.2349  -24.7980 H   0  0  0  0  0  0
    7.6294    8.5345  -23.7256 H   0  0  0  0  0  0
    8.3606   10.0333  -23.0582 H   0  0  0  0  0  0
    7.0639    9.8807  -20.9878 H   0  0  0  0  0  0
    7.3313    8.1363  -21.3231 H   0  0  0  0  0  0
    0.5665    2.2188  -20.8263 H   0  0  0  0  0  0
    7.3860    0.8077  -21.8010 H   0  0  0  0  0  0
   -4.7156    3.7684  -28.3190 H   0  0  0  0  0  0
    4.0878    5.0688  -23.0334 O   0  0  0  0  0  0
    1.4837    4.7550  -23.6673 N   0  0  0  0  0  0
    1.7934    2.5358  -24.4871 N   0  0  0  0  0  0
    0.0757    4.6169  -23.9560 N   0  0  0  0  0  0
    2.0005    5.9453  -23.1914 N   0  0  0  0  0  0
    0.4062    2.4679  -24.7973 N   0  0  0  0  0  0
    3.6228    3.8312  -23.5591 C   0  0  0  0  0  0
   -0.4155    3.4634  -24.5284 C   0  0  0  0  0  0
    3.2665    6.0430  -22.9089 C   0  0  0  0  0  0
    2.3408    3.6879  -23.8940 C   0  0  0  0  0  0
    2.4495    1.6818  -24.7110 H   0  0  0  0  0  0
   -0.6174    5.4375  -23.7189 H   0  0  0  0  0  0
    6.7804    0.7639  -23.4916 H   0  0  0  0  0  0
    4.7896    8.8235  -23.9777 H   0  0  0  0  0  0
  1  2  2  0  0  0
  1  3  1  0  0  0
  1 34  1  0  0  0
  2  6  1  0  0  0
  2 35  1  0  0  0
  3  5  2  0  0  0
  3 28  1  0  0  0
  4  5  1  0  0  0
  4  6  2  0  0  0
  4 11  1  0  0  0
  5 25  1  0  0  0
  6 10  1  0  0  0
  7 10  2  0  0  0
  7 17  1  0  0  0
  7 33  1  0  0  0
  8 15  1  0  0  0
  8 16  1  0  0  0
  8 36  1  0  0  0
  8 37  1  0  0  0
  9 15  1  0  0  0
  9 29  1  0  0  0
  9 38  1  0  0  0
  9 39  1  0  0  0
 10 40  1  0  0  0
 11 17  2  0  0  0
 11 71  1  0  0  0
 12 18  1  0  0  0
 12 32  1  0  0  0
 12 41  1  0  0  0
 12 42  1  0  0  0
 13 14  1  0  0  0
 13 29  1  0  0  0
 13 43  1  0  0  0
 13 44  1  0  0  0
 14 16  1  0  0  0
 14 30  1  0  0  0
 14 45  1  0  0  0
 15 30  1  0  0  0
 15 46  1  0  0  0
 16 47  1  0  0  0
 16 48  1  0  0  0
 17 49  1  0  0  0
 18 19  1  0  0  0
 18 24  1  0  0  0
 18 31  1  0  0  0
 19 20  1  0  0  0
 19 50  1  0  0  0
 19 51  1  0  0  0
 20 21  1  0  0  0
 20 27  1  0  0  0
 20 52  1  0  0  0
 21 31  1  0  0  0
 21 53  1  0  0  0
 21 54  1  0  0  0
 22 23  1  0  0  0
 22 31  1  0  0  0
 22 55  1  0  0  0
 22 56  1  0  0  0
 23 24  1  0  0  0
 23 57  1  0  0  0
 23 58  1  0  0  0
 24 59  1  0  0  0
 24 60  1  0  0  0
 25 26  3  0  0  0
 26 61  1  0  0  0
 29 70  1  0  0  0
 30 62  1  0  0  0
 30 76  1  0  0  0
 31 77  1  0  0  0
 32 72  1  0  0  0
 33 63  1  0  0  0
 64 70  1  0  0  0
 64 72  1  0  0  0
 65 67  1  0  0  0
 65 68  1  0  0  0
 65 73  1  0  0  0
 66 69  1  0  0  0
 66 73  1  0  0  0
 66 74  1  0  0  0
 67 71  1  0  0  0
 67 75  1  0  0  0
 68 72  2  0  0  0
 69 71  2  0  0  0
 70 73  2  0  0  0
M  CHG  2  30   1  31   1
M  END
> <s_m_entry_id>
14

> <s_m_entry_name>
Mirati-central-6-6-ring-fragments.196

> <s_m_Source_Path>
/home/julia/Documents/BSC/pc_bsc/julia/results/KRAS/rescore_fragments_KRAS_Soumya/glide-dock_SP_rescore_Mirati_central-6-6

> <s_m_Source_File>
glide-dock_SP_rescore_Mirati_central-6-6_pv.maegz

> <i_m_Source_File_Index>
14

> <s_m_job_name>
epik_central-6-6

> <s_epik_input>
W0NIXSNDYzFjKEYpW2NIXVtjSF1jKGMxMilbY0hdYyhbT0hdKVtjSF1jMi1jKFtuSF0zKW5bbkhdYyhuMzQpYyhOKFtDSDJdW0NASF01NilbQ0gyXVtDQEhdKFtOSF02KVtDSDJdW0NIMl01KW9jKG40KU9bQ0gyXVtDQEBdNzhOKFtDSDJdW0NASF0oRilbQ0gyXTcpW0NIMl1bQ0gyXVtDSDJdOA==

> <s_epik_cmdline>
J2VwaWtfYXBwJywgJy1pbWFlJywgJy9zaGFyZWQvd29yay9sZGlhei9HTV9TdXBlcmx1bWluYWwvS1JBU19HMTJEL2VwaWtfY2VudHJhbC02LTYvZXBpa19jZW50cmFsLTYtNi5tYWVneicsICctb21hZScsICdlcGlrX2NlbnRyYWwtNi02LW91dC5tYWVneicsICctbnQnLCAnLW1zJywgJzEnLCAnLXBoJywgJzYuOTAnLCAnLXBodCcsICcwLjUwJywgJy1zJywgJ3dhdGVyJw==

> <r_epik_Ionization_Penalty>
  0.1858

> <r_epik_Ionization_Penalty_Charging>
  0.1760

> <r_epik_Ionization_Penalty_Neutral>
  0.0098

> <r_epik_State_Penalty>
  0.0000

> <r_epik_Charging_Adjusted_Penalty>
0.175991131410361

> <i_epik_Tot_Q>
2

> <i_epik_Tot_abs_Q>
2

> <r_lp_tautomer_probability>
1

> <MW_cresset>
591

> <#Atoms_cresset>
43

> <SlogP_cresset>
3.4

> <TPSA_cresset>
123

> <Rof5_cresset>
2

> <_cresset_fieldpoints>
    -5      -0.243324       0.708805     -24.383047    -10.0521
    -5       0.845716       4.981787     -21.534723     -6.2963
    -5      -2.593421       2.180498     -29.008678     -5.2496
    -5       1.287787       5.537255     -25.791906     -8.6762
    -5       1.397571       3.025700     -26.625486     -9.0926
    -5       4.120749      14.545097     -20.511631     -2.2131
    -5       5.486485      13.815153     -23.363684     -2.4168
    -5       7.711460      12.545059     -21.408264     -2.3109
    -5       4.210343       8.293852     -24.860802     -7.0107
    -5       7.001487       0.247355     -24.310781     -4.4615
    -6      -6.434188       3.985461     -27.990774      7.0969
    -6      -7.490389       4.057297     -25.739279      5.0596
    -6      -1.788738       6.612540     -23.276979      4.3523
    -6       7.786132       5.837111     -22.269016      4.4642
    -6       8.494455       0.118889     -21.047186      8.0995
    -6       2.970054       0.113621     -25.590853      2.9055
    -6       3.596118      -1.543385     -23.117285      1.6281
    -6       1.970981      10.179747     -19.093969      1.4095
    -6       0.826649      11.080843     -22.121721      1.1792
    -6       2.516541       0.503901     -20.359169      1.4490
    -7      -8.399972       4.129175     -22.321682     -1.0293
    -7       0.666785       0.400562     -23.463636     -2.8041
    -7       8.204361       0.709988     -20.018744     -1.9274
    -7       3.703728       4.948460     -19.924673     -2.6300
    -7       1.289254       2.627316     -27.127586     -2.0827
    -7      -2.760463       6.459554     -23.157019     -2.7492
    -7       6.274075       7.579710     -18.830048     -1.9886
    -7       6.931084       0.041731     -24.805162     -2.0121
    -7       2.364954       0.495199     -20.431208     -2.1194
    -7       3.144395       6.514387     -19.585150     -1.9740
    -7       1.083145       6.395763     -25.635050     -2.3784
    -7       3.229860      11.175478     -18.322920     -1.3395
    -7       2.323773       4.176362     -20.429735     -2.6946
    -7       0.300193       5.641140     -21.429571     -2.9771
    -7       2.071979      13.209604     -22.838198     -1.2944
    -7       8.161631      12.320406     -21.564066     -1.9371
    -7       4.254892       2.052032     -26.404284     -2.2554
    -7       4.779994       7.895215     -25.277094     -2.9612
    -7       6.116220       6.542828     -25.284056     -2.4040
    -7       6.985848      11.291601     -18.829268     -1.5335
    -7       7.945509       5.815936     -22.473116     -3.1729
    -7       5.466687      13.561422     -24.188757     -1.4986
    -7      -3.760800       0.201192     -23.787142     -2.4886
    -7      -5.173503       6.078791     -27.961000     -1.2379
    -7      -5.574138       1.605425     -28.202291     -1.2349
    -7      -1.793506       4.040618     -29.523165     -1.1846
    -7       1.354952       8.572083     -21.760611     -2.4256
    -8      -3.969348       3.356924     -22.996609      7.1510
    -8      -3.146050       3.491742     -25.212826      6.9972
    -8       5.643921       2.457714     -21.751268      5.2313
    -8       6.688545       9.476753     -22.424574      5.3417
    -8       4.591681      10.460440     -21.571859      5.6434
    -8       5.708322       9.489550     -21.236551      5.1941

> <s_i_glide_gridfile>
glide-grid_7RPZ_constraints

> <i_i_glide_lignum>
196

> <i_i_glide_rotatable_bonds>
7

> <r_i_docking_score>
-12.141293887316

> <r_i_glide_ligand_efficiency>
-0.282355671798047

> <r_i_glide_ligand_efficiency_sa>
-0.989204311676269

> <r_i_glide_ligand_efficiency_ln>
-2.55004906164239

> <r_i_glide_gscore>
-12.141293887316

> <r_i_glide_lipo>
-3.53530298908625

> <r_i_glide_hbond>
-0.908681645694311

> <r_i_glide_metal>
0

> <r_i_glide_rewards>
-0.985371350308104

> <r_i_glide_evdw>
-65.7125473022461

> <r_i_glide_ecoul>
-23.3446521759033

> <r_i_glide_erotb>
0.247527829823936

> <r_i_glide_esite>
-0.172140540553481

> <r_i_glide_emodel>
0

> <r_i_glide_energy>
-89.0571994781494

> <r_i_glide_einternal>
0

> <i_i_glide_confnum>
1

> <i_i_glide_posenum>
1

> <r_i_glide_eff_state_penalty>
0

> <Total Formal Charge>
0

> <Setting>
[Custom]

> <rmsDist>
0.07

> <rmsAng>
2.7

> <Frag ID>
102109

> <Attachment Point 1 Type>
Car

> <Attachment Point 2 Type>
Car

> <Attachment Point 3 Type>
Car

> <Unstable>
false

> <Database>
VEHICLe

> <Attachment Types>
Csp3|Csp3|Csp3

> <Frequency>
1

> <TorsFreq Frag>


> <Strain 1>
0

> <TorsFreq 1>
High

> <Strain 2>
0

> <TorsFreq 2>
Medium

> <Strain 3>
2.7

> <TorsFreq 3>
High

> <BIF>
0.41

> <Cluster SMILES>
[Fm]c1nn2-c([nH]nc([Cf])[nH]2)c([Es])o1

> <Cluster Number>
80

> <Rank>
195

> <Favorite_cresset>
false

> <BIF%>
41

> <Score>
0.895

> <Field Score>
0.806

> <Shape Score>
0.984

> <Docking Score>
0

> <Flexibility_cresset>
5.6

> <#RB_cresset>
6

> <Radial Plot_cresset>
0.357

> <2D Sim_cresset>
0.679

> <Fragment SMILES>
[Fm]c1nn2-c([nH]nc([Cf])[nH]2)c([Es])o1

> <Parent Aux1>
Training dataset hits: 0

> <s_epik_Chemistry_Notes>
This compound has an imine and may undergo hydrolysis.

> <Parent Aux2>
Beilstein hits: 0

> <s_m_subgroup_title>
glide-dock_SP_rescore_Mirati_central-6-6_pv

> <s_m_subgroupid>
glide-dock_SP_rescore_Mirati_central-6-6_pv

> <b_m_subgroup_collapsed>
0

$$$$
[Fm]c1cc([Es])c2cnc([Cf])nc2n1
                    3D
 Schrodinger Suite 2022-3.
 77 84  0  0  1  0            999 V2000
   -5.0360    3.4183  -22.1362 C   0  0  0  0  0  0
   -5.2125    3.5722  -23.4694 C   0  0  0  0  0  0
   -3.7604    3.1895  -21.6257 C   0  0  0  0  0  0
   -2.7977    3.3747  -23.8537 C   0  0  0  0  0  0
   -2.6577    3.1513  -22.4497 C   0  0  0  0  0  0
   -4.1082    3.5325  -24.3394 C   0  0  0  0  0  0
   -3.3406    3.6284  -26.6057 C   0  0  0  0  0  0
    6.3614    3.0159  -21.2975 C   0  0  0  0  0  0
    5.9815    2.9929  -23.8780 C   0  0  0  0  0  0
   -4.3665    3.6473  -25.7141 C   0  0  0  0  0  0
   -1.7456    3.4399  -24.8108 C   0  0  0  0  0  0
    4.9317    7.4465  -22.1476 C   0  0  0  0  0  0
    4.2714    1.3711  -23.1482 C   0  0  0  0  0  0
    5.2681    0.9589  -22.0353 C   0  0  2  0  0  0
    6.8639    2.5537  -22.6824 C   0  0  2  0  0  0
    5.2697    1.9970  -20.8965 C   0  0  0  0  0  0
   -2.0230    3.5375  -26.1446 C   0  0  0  0  0  0
    5.2944    8.9356  -21.9533 C   0  0  1  0  0  0
    4.4559    9.6532  -20.8689 C   0  0  0  0  0  0
    3.9841   10.9560  -21.5326 C   0  0  2  0  0  0
    3.9489   10.6042  -23.0278 C   0  0  0  0  0  0
    6.2653   10.2951  -23.6863 C   0  0  0  0  0  0
    7.3845    9.4396  -23.0853 C   0  0  0  0  0  0
    6.8121    9.0767  -21.7108 C   0  0  0  0  0  0
   -1.4026    2.8218  -21.8177 C   0  0  0  0  0  0
   -0.3499    2.5212  -21.2802 C   0  0  0  0  0  0
    4.9132   11.9666  -21.3048 F   0  0  0  0  0  0
   -3.6224    2.9913  -20.3069 F   0  0  0  0  0  0
    4.5357    2.7329  -23.6711 N   0  0  0  0  0  0
    6.6330    1.1164  -22.5452 N   0  3  1  0  0  0
    5.0341    9.6302  -23.2246 N   0  3  1  0  0  0
    3.5441    7.2477  -22.5101 O   0  0  0  0  0  0
   -3.5944    3.7196  -27.9407 O   0  0  0  0  0  0
   -5.8220    3.4530  -21.5188 H   0  0  0  0  0  0
   -6.1326    3.7136  -23.8350 H   0  0  0  0  0  0
    7.1982    3.0115  -20.5836 H   0  0  0  0  0  0
    5.9525    4.0340  -21.3768 H   0  0  0  0  0  0
    6.1018    4.0735  -24.0450 H   0  0  0  0  0  0
    6.2892    2.4458  -24.7813 H   0  0  0  0  0  0
   -5.3079    3.7343  -26.0417 H   0  0  0  0  0  0
    5.5521    7.0196  -22.9494 H   0  0  0  0  0  0
    5.1152    6.8992  -21.2112 H   0  0  0  0  0  0
    4.3474    0.6651  -23.9883 H   0  0  0  0  0  0
    3.2471    1.3552  -22.7474 H   0  0  0  0  0  0
    5.0315   -0.0698  -21.7256 H   0  0  0  0  0  0
    7.8893    2.8938  -22.8896 H   0  0  0  0  0  0
    5.5299    1.5425  -19.9292 H   0  0  0  0  0  0
    4.3013    2.5117  -20.8110 H   0  0  0  0  0  0
   -1.2723    3.5660  -26.8051 H   0  0  0  0  0  0
    3.6087    9.0146  -20.5782 H   0  0  0  0  0  0
    5.0858    9.8498  -19.9888 H   0  0  0  0  0  0
    3.0603   11.3916  -21.1242 H   0  0  0  0  0  0
    2.9692   10.1722  -23.2799 H   0  0  0  0  0  0
    4.1121   11.5149  -23.6227 H   0  0  0  0  0  0
    6.3495   11.3255  -23.3106 H   0  0  0  0  0  0
    6.3532   10.2963  -24.7828 H   0  0  0  0  0  0
    7.5575    8.5609  -23.7240 H   0  0  0  0  0  0
    8.3075   10.0347  -23.0226 H   0  0  0  0  0  0
    6.9927    9.8677  -20.9680 H   0  0  0  0  0  0
    7.2138    8.1235  -21.3365 H   0  0  0  0  0  0
    0.5996    2.2501  -20.7954 H   0  0  0  0  0  0
    7.3439    0.6710  -21.8337 H   0  0  0  0  0  0
   -4.6317    3.7909  -28.2997 H   0  0  0  0  0  0
    0.0493    4.6432  -23.9357 N   0  0  0  0  0  0
    1.8294    5.9626  -23.1756 N   0  0  0  0  0  0
    0.4228    2.4061  -24.7988 N   0  0  0  0  0  0
    3.6174    3.7817  -23.5348 C   0  0  0  0  0  0
    3.1435    6.0537  -22.9163 C   0  0  0  0  0  0
    1.3752    4.7606  -23.6570 C   0  0  0  0  0  0
   -0.3353    3.4845  -24.4893 C   0  0  0  0  0  0
    1.7083    2.5281  -24.4662 C   0  0  0  0  0  0
    2.2440    3.6660  -23.8816 C   0  0  0  0  0  0
    4.0308    4.9890  -23.0674 C   0  0  0  0  0  0
    2.3185    1.7593  -24.6553 H   0  0  0  0  0  0
    4.9899    5.1160  -22.8323 H   0  0  0  0  0  0
    6.7218    0.6101  -23.5177 H   0  0  0  0  0  0
    4.7234    8.9082  -23.9941 H   0  0  0  0  0  0
  1  2  2  0  0  0
  1  3  1  0  0  0
  1 34  1  0  0  0
  2  6  1  0  0  0
  2 35  1  0  0  0
  3  5  2  0  0  0
  3 28  1  0  0  0
  4  5  1  0  0  0
  4  6  2  0  0  0
  4 11  1  0  0  0
  5 25  1  0  0  0
  6 10  1  0  0  0
  7 10  2  0  0  0
  7 17  1  0  0  0
  7 33  1  0  0  0
  8 15  1  0  0  0
  8 16  1  0  0  0
  8 36  1  0  0  0
  8 37  1  0  0  0
  9 15  1  0  0  0
  9 29  1  0  0  0
  9 38  1  0  0  0
  9 39  1  0  0  0
 10 40  1  0  0  0
 11 17  2  0  0  0
 11 70  1  0  0  0
 12 18  1  0  0  0
 12 32  1  0  0  0
 12 41  1  0  0  0
 12 42  1  0  0  0
 13 14  1  0  0  0
 13 29  1  0  0  0
 13 43  1  0  0  0
 13 44  1  0  0  0
 14 16  1  0  0  0
 14 30  1  0  0  0
 14 45  1  0  0  0
 15 30  1  0  0  0
 15 46  1  0  0  0
 16 47  1  0  0  0
 16 48  1  0  0  0
 17 49  1  0  0  0
 18 19  1  0  0  0
 18 24  1  0  0  0
 18 31  1  0  0  0
 19 20  1  0  0  0
 19 50  1  0  0  0
 19 51  1  0  0  0
 20 21  1  0  0  0
 20 27  1  0  0  0
 20 52  1  0  0  0
 21 31  1  0  0  0
 21 53  1  0  0  0
 21 54  1  0  0  0
 22 23  1  0  0  0
 22 31  1  0  0  0
 22 55  1  0  0  0
 22 56  1  0  0  0
 23 24  1  0  0  0
 23 57  1  0  0  0
 23 58  1  0  0  0
 24 59  1  0  0  0
 24 60  1  0  0  0
 25 26  3  0  0  0
 26 61  1  0  0  0
 29 67  1  0  0  0
 30 62  1  0  0  0
 30 76  1  0  0  0
 31 77  1  0  0  0
 32 68  1  0  0  0
 33 63  1  0  0  0
 64 69  1  0  0  0
 64 70  2  0  0  0
 65 68  1  0  0  0
 65 69  2  0  0  0
 66 70  1  0  0  0
 66 71  2  0  0  0
 67 72  2  0  0  0
 67 73  1  0  0  0
 68 73  2  0  0  0
 69 72  1  0  0  0
 71 72  1  0  0  0
 71 74  1  0  0  0
 73 75  1  0  0  0
M  CHG  2  30   1  31   1
M  END
> <s_m_entry_id>
15

> <s_m_entry_name>
Mirati-central-6-6-ring-fragments.57

> <s_m_Source_Path>
/home/julia/Documents/BSC/pc_bsc/julia/results/KRAS/rescore_fragments_KRAS_Soumya/glide-dock_SP_rescore_Mirati_central-6-6

> <s_m_Source_File>
glide-dock_SP_rescore_Mirati_central-6-6_pv.maegz

> <i_m_Source_File_Index>
15

> <s_m_job_name>
epik_central-6-6

> <s_epik_input>
W0NIXSNDYzFjKEYpW2NIXVtjSF1jKGMxMilbY0hdYyhbT0hdKVtjSF1jMi1jKG4zKW5bY0hdYyhjMzQpYyhOKFtDSDJdW0NASF01NilbQ0gyXVtDQEhdKFtOSF02KVtDSDJdW0NIMl01KVtjSF1jKG40KU9bQ0gyXVtDQEBdNzhOKFtDSDJdW0NASF0oRilbQ0gyXTcpW0NIMl1bQ0gyXVtDSDJdOA==

> <s_epik_cmdline>
J2VwaWtfYXBwJywgJy1pbWFlJywgJy9zaGFyZWQvd29yay9sZGlhei9HTV9TdXBlcmx1bWluYWwvS1JBU19HMTJEL2VwaWtfY2VudHJhbC02LTYvZXBpa19jZW50cmFsLTYtNi5tYWVneicsICctb21hZScsICdlcGlrX2NlbnRyYWwtNi02LW91dC5tYWVneicsICctbnQnLCAnLW1zJywgJzEnLCAnLXBoJywgJzYuOTAnLCAnLXBodCcsICcwLjUwJywgJy1zJywgJ3dhdGVyJw==

> <r_epik_Ionization_Penalty>
  0.0416

> <r_epik_Ionization_Penalty_Charging>
  0.0326

> <r_epik_Ionization_Penalty_Neutral>
  0.0091

> <r_epik_State_Penalty>
  0.0285

> <r_epik_Charging_Adjusted_Penalty>
0.0610911575884923

> <i_epik_Tot_Q>
2

> <i_epik_Tot_abs_Q>
2

> <r_lp_tautomer_probability>
1

> <MW_cresset>
583

> <#Atoms_cresset>
43

> <SlogP_cresset>
4.9

> <TPSA_cresset>
87

> <Rof5_cresset>
1

> <_cresset_fieldpoints>
    -5      -0.840683       6.289101     -23.344248    -14.8215
    -5      -0.648425       0.679835     -25.116932     -7.8254
    -5       0.300173       7.150914     -23.071012    -14.5643
    -5       3.681152      14.410603     -20.551661     -2.8575
    -5       7.690729      12.558649     -21.360376     -2.5185
    -5       5.311741      13.890390     -23.353552     -2.9315
    -5       6.935960      -0.021243     -24.287813     -2.8383
    -6      -6.359724       3.811043     -27.964716      7.5081
    -6      -7.401780       3.801174     -25.850359      5.3224
    -6       7.357037       5.681906     -22.596052      7.5258
    -6       8.454136       0.038034     -21.054977      9.3407
    -6       3.031485      -1.288805     -22.672461      2.8632
    -6       2.400965       0.643491     -20.540403      3.1985
    -6       2.428351      -0.626397     -24.242334      2.8344
    -7      -8.179588       4.677663     -22.325094     -1.0273
    -7       3.880224       4.942150     -19.801573     -2.8335
    -7      -1.012345       0.289560     -23.932497     -2.7576
    -7      -1.460664       6.216513     -22.654112     -3.0347
    -7      -3.406044       0.220000     -24.007608     -2.5223
    -7       8.047020       0.377613     -20.023413     -1.9181
    -7       2.351895       4.131497     -20.284571     -3.0574
    -7       7.693883       5.768691     -22.610365     -3.5650
    -7       7.378277       5.879944     -20.144094     -2.1785
    -7       0.967317      -0.053938     -22.689161     -2.1603
    -7       2.356125       0.535868     -20.390760     -2.2522
    -7       1.127014       4.795422     -27.108084     -2.1456
    -7       3.170183      11.268972     -18.334887     -1.3396
    -7       6.086716       7.549940     -18.865522     -2.0207
    -7       3.042533       6.535015     -19.657217     -2.2268
    -7       1.274092       8.617586     -21.864752     -2.5913
    -7       2.124000      13.371668     -22.833817     -1.2945
    -7       5.506503      13.628881     -24.154253     -1.5028
    -7       8.157916      12.287350     -21.491316     -1.9352
    -7       4.494475       8.038027     -25.269102     -3.2029
    -7       6.926649      11.270182     -18.799305     -1.5287
    -7       6.836751      -0.270155     -24.723967     -2.0058
    -7      -5.439898       1.569522     -28.154699     -1.2396
    -7      -1.660990       3.910519     -29.499430     -1.1897
    -7      -5.137169       6.050727     -27.991072     -1.2409
    -7       4.278228       2.013295     -26.462297     -2.4157
    -7       3.621356       5.530038     -26.407110     -1.9901
    -8      -3.918304       3.372668     -22.985140      7.1585
    -8      -3.066279       3.524069     -25.191656      7.0004
    -8       4.544792      10.516926     -21.573568      5.6636
    -8       6.608912       9.487133     -22.416914      5.3428
    -8       2.947929       4.536927     -23.428774      5.1859
    -8       5.671494       2.381080     -21.775396      5.2346
    -8       5.977123       8.284849     -21.817465      5.0950
    -8       5.620053       9.533001     -21.239437      5.1933
    -8       2.389374       3.703088     -23.819674      4.8198
    -8       4.603876       5.854443     -22.672838      3.5165

> <s_i_glide_gridfile>
glide-grid_7RPZ_constraints

> <i_i_glide_lignum>
57

> <i_i_glide_rotatable_bonds>
7

> <r_i_docking_score>
-12.1217915004709

> <r_i_glide_ligand_efficiency>
-0.281902127917929

> <r_i_glide_ligand_efficiency_sa>
-0.987615366928356

> <r_i_glide_ligand_efficiency_ln>
-2.54595295428056

> <r_i_glide_gscore>
-12.1502915004709

> <r_i_glide_lipo>
-3.72486551610107

> <r_i_glide_hbond>
-0.988170031659884

> <r_i_glide_metal>
0

> <r_i_glide_rewards>
-0.792529057913671

> <r_i_glide_evdw>
-62.806697845459

> <r_i_glide_ecoul>
-23.9703922271729

> <r_i_glide_erotb>
0.263600542343462

> <r_i_glide_esite>
-0.172433710790899

> <r_i_glide_emodel>
0

> <r_i_glide_energy>
-86.7770900726318

> <r_i_glide_einternal>
0

> <i_i_glide_confnum>
1

> <i_i_glide_posenum>
1

> <r_i_glide_eff_state_penalty>
0.0285

> <Total Formal Charge>
0

> <Setting>
[Custom]

> <rmsDist>
0.11

> <rmsAng>
3.2

> <Frag ID>
25513

> <Attachment Point 1 Type>
Car

> <Attachment Point 2 Type>
Car

> <Attachment Point 3 Type>
Car

> <Unstable>
false

> <Database>
VEHICLe

> <Attachment Types>
Csp3|Csp3|Csp3

> <Frequency>
1

> <TorsFreq Frag>


> <Strain 1>
1.8

> <TorsFreq 1>
High

> <Strain 2>
0

> <TorsFreq 2>
Medium

> <Strain 3>
1.4

> <TorsFreq 3>
High

> <BIF>
0.593

> <Cluster SMILES>
[Fm]c1cc([Es])c2cnc([Cf])nc2n1

> <Cluster Number>
18

> <Rank>
56

> <Favorite_cresset>
false

> <BIF%>
59

> <Score>
0.927

> <Field Score>
0.871

> <Shape Score>
0.984

> <Docking Score>
0

> <Flexibility_cresset>
5.4

> <#RB_cresset>
6

> <Radial Plot_cresset>
0.375

> <2D Sim_cresset>
0.827

> <Fragment SMILES>
[Fm]c1cc([Es])c2cnc([Cf])nc2n1

> <Parent Aux1>
Training dataset hits: 0

> <Parent Aux2>
Beilstein hits: 0

> <s_m_subgroup_title>
glide-dock_SP_rescore_Mirati_central-6-6_pv

> <s_m_subgroupid>
glide-dock_SP_rescore_Mirati_central-6-6_pv

> <b_m_subgroup_collapsed>
0

$$$$
[Fm]c1cc([Es])n2[nH]nc([Cf])[nH]n2n1
                    3D
 Schrodinger Suite 2022-3.
 78 85  0  0  1  0            999 V2000
   -5.0943    3.4141  -22.1428 C   0  0  0  0  0  0
   -5.2773    3.5571  -23.4779 C   0  0  0  0  0  0
   -3.8189    3.1893  -21.6327 C   0  0  0  0  0  0
   -2.8653    3.3478  -23.8668 C   0  0  0  0  0  0
   -2.7214    3.1404  -22.4619 C   0  0  0  0  0  0
   -4.1763    3.5044  -24.3499 C   0  0  0  0  0  0
   -3.4197    3.5607  -26.6206 C   0  0  0  0  0  0
    6.4313    2.9661  -21.2785 C   0  0  0  0  0  0
    6.0559    2.9738  -23.8484 C   0  0  0  0  0  0
   -4.4406    3.6088  -25.7222 C   0  0  0  0  0  0
   -1.8130    3.3839  -24.8314 C   0  0  0  0  0  0
    5.0105    7.4928  -22.1052 C   0  0  0  0  0  0
    4.2862    1.3875  -23.1384 C   0  0  0  0  0  0
    5.2651    0.9459  -22.0212 C   0  0  2  0  0  0
    6.9192    2.4820  -22.6609 C   0  0  2  0  0  0
    5.3067    1.9818  -20.8794 C   0  0  0  0  0  0
   -2.1029    3.4462  -26.1726 C   0  0  0  0  0  0
    5.3591    8.9866  -21.9342 C   0  0  1  0  0  0
    4.5179    9.6923  -20.8443 C   0  0  0  0  0  0
    4.0174   10.9813  -21.5135 C   0  0  2  0  0  0
    3.9811   10.6272  -23.0098 C   0  0  0  0  0  0
    6.2949   10.3461  -23.6834 C   0  0  0  0  0  0
    7.4295    9.5043  -23.0939 C   0  0  0  0  0  0
    6.8768    9.1556  -21.7082 C   0  0  0  0  0  0
   -1.4703    2.8161  -21.8217 C   0  0  0  0  0  0
   -0.4191    2.5242  -21.2753 C   0  0  0  0  0  0
    4.9280   12.0080  -21.2897 F   0  0  0  0  0  0
   -3.6699    3.0070  -20.3116 F   0  0  0  0  0  0
    4.6052    2.7399  -23.6457 N   0  0  0  0  0  0
    6.6328    1.0539  -22.5354 N   0  3  1  0  0  0
    5.0772    9.6674  -23.2087 N   0  3  1  0  0  0
    3.6307    7.3015  -22.4969 O   0  0  0  0  0  0
   -3.6821    3.6620  -27.9524 O   0  0  0  0  0  0
   -5.8777    3.4572  -21.5234 H   0  0  0  0  0  0
   -6.1974    3.6995  -23.8423 H   0  0  0  0  0  0
    7.2671    2.9371  -20.5639 H   0  0  0  0  0  0
    6.0562    3.9968  -21.3623 H   0  0  0  0  0  0
    6.2041    4.0550  -23.9864 H   0  0  0  0  0  0
    6.3553    2.4429  -24.7641 H   0  0  0  0  0  0
   -5.3818    3.7146  -26.0441 H   0  0  0  0  0  0
    5.6530    7.0530  -22.8822 H   0  0  0  0  0  0
    5.1741    6.9668  -21.1531 H   0  0  0  0  0  0
    4.3462    0.6805  -23.9790 H   0  0  0  0  0  0
    3.2599    1.4004  -22.7427 H   0  0  0  0  0  0
    4.9889   -0.0715  -21.7070 H   0  0  0  0  0  0
    7.9611    2.7697  -22.8648 H   0  0  0  0  0  0
    5.5535    1.5149  -19.9145 H   0  0  0  0  0  0
    4.3561    2.5279  -20.7900 H   0  0  0  0  0  0
   -1.3586    3.4491  -26.8399 H   0  0  0  0  0  0
    3.6862    9.0387  -20.5426 H   0  0  0  0  0  0
    5.1526    9.9046  -19.9714 H   0  0  0  0  0  0
    3.0856   11.3991  -21.1046 H   0  0  0  0  0  0
    3.0060   10.1827  -23.2578 H   0  0  0  0  0  0
    4.1306   11.5393  -23.6062 H   0  0  0  0  0  0
    6.3711   11.3776  -23.3091 H   0  0  0  0  0  0
    6.3714   10.3477  -24.7807 H   0  0  0  0  0  0
    7.5973    8.6204  -23.7269 H   0  0  0  0  0  0
    8.3494   10.1060  -23.0530 H   0  0  0  0  0  0
    7.0516    9.9616  -20.9803 H   0  0  0  0  0  0
    7.2970    8.2153  -21.3219 H   0  0  0  0  0  0
    0.5286    2.2610  -20.7827 H   0  0  0  0  0  0
    7.3283    0.5745  -21.8308 H   0  0  0  0  0  0
   -4.7208    3.7521  -28.3030 H   0  0  0  0  0  0
    1.4522    4.7415  -23.5736 N   0  0  3  0  0  0
    1.7968    2.5255  -24.5713 N   0  0  3  0  0  0
    2.3606    3.6557  -23.8532 N   0  0  0  0  0  0
    0.0395    4.5389  -23.7915 N   0  0  0  0  0  0
    1.9474    5.9741  -23.1355 N   0  0  0  0  0  0
    0.4283    2.4975  -24.8958 N   0  0  0  0  0  0
    3.6951    3.7901  -23.5199 C   0  0  0  0  0  0
    3.2281    6.1040  -22.8918 C   0  0  0  0  0  0
   -0.4174    3.4489  -24.5028 C   0  0  0  0  0  0
    4.1170    4.9925  -23.0551 C   0  0  0  0  0  0
    2.3148    1.8594  -24.8214 H   0  0  0  0  0  0
   -0.6880    5.2587  -23.3882 H   0  0  0  0  0  0
    5.1742    5.1391  -22.7890 H   0  0  0  0  0  0
    6.6977    0.5531  -23.5127 H   0  0  0  0  0  0
    4.7693    8.9365  -23.9709 H   0  0  0  0  0  0
  1  2  2  0  0  0
  1  3  1  0  0  0
  1 34  1  0  0  0
  2  6  1  0  0  0
  2 35  1  0  0  0
  3  5  2  0  0  0
  3 28  1  0  0  0
  4  5  1  0  0  0
  4  6  2  0  0  0
  4 11  1  0  0  0
  5 25  1  0  0  0
  6 10  1  0  0  0
  7 10  2  0  0  0
  7 17  1  0  0  0
  7 33  1  0  0  0
  8 15  1  0  0  0
  8 16  1  0  0  0
  8 36  1  0  0  0
  8 37  1  0  0  0
  9 15  1  0  0  0
  9 29  1  0  0  0
  9 38  1  0  0  0
  9 39  1  0  0  0
 10 40  1  0  0  0
 11 17  2  0  0  0
 11 72  1  0  0  0
 12 18  1  0  0  0
 12 32  1  0  0  0
 12 41  1  0  0  0
 12 42  1  0  0  0
 13 14  1  0  0  0
 13 29  1  0  0  0
 13 43  1  0  0  0
 13 44  1  0  0  0
 14 16  1  0  0  0
 14 30  1  0  0  0
 14 45  1  0  0  0
 15 30  1  0  0  0
 15 46  1  0  0  0
 16 47  1  0  0  0
 16 48  1  0  0  0
 17 49  1  0  0  0
 18 19  1  0  0  0
 18 24  1  0  0  0
 18 31  1  0  0  0
 19 20  1  0  0  0
 19 50  1  0  0  0
 19 51  1  0  0  0
 20 21  1  0  0  0
 20 27  1  0  0  0
 20 52  1  0  0  0
 21 31  1  0  0  0
 21 53  1  0  0  0
 21 54  1  0  0  0
 22 23  1  0  0  0
 22 31  1  0  0  0
 22 55  1  0  0  0
 22 56  1  0  0  0
 23 24  1  0  0  0
 23 57  1  0  0  0
 23 58  1  0  0  0
 24 59  1  0  0  0
 24 60  1  0  0  0
 25 26  3  0  0  0
 26 61  1  0  0  0
 29 70  1  0  0  0
 30 62  1  0  0  0
 30 77  1  0  0  0
 31 78  1  0  0  0
 32 71  1  0  0  0
 33 63  1  0  0  0
 64 66  1  0  0  0
 64 67  1  0  0  0
 64 68  1  0  0  0
 65 66  1  0  0  0
 65 69  1  0  0  0
 65 74  1  0  0  0
 66 70  1  0  0  0
 67 72  1  0  0  0
 67 75  1  0  0  0
 68 71  2  0  0  0
 69 72  2  0  0  0
 70 73  2  0  0  0
 71 73  1  0  0  0
 73 76  1  0  0  0
M  CHG  2  30   1  31   1
M  END
> <s_m_entry_id>
16

> <s_m_entry_name>
Mirati-central-6-6-ring-fragments.143

> <s_m_Source_Path>
/home/julia/Documents/BSC/pc_bsc/julia/results/KRAS/rescore_fragments_KRAS_Soumya/glide-dock_SP_rescore_Mirati_central-6-6

> <s_m_Source_File>
glide-dock_SP_rescore_Mirati_central-6-6_pv.maegz

> <i_m_Source_File_Index>
16

> <s_m_job_name>
epik_central-6-6

> <s_epik_input>
W0NIXSNDYzFjKEYpW2NIXVtjSF1jKGMxMilbY0hdYyhbT0hdKVtjSF1jMi1jKFtuSF0zKW5bbkhdbihuMzQpYyhOKFtDSDJdW0NASF01NilbQ0gyXVtDQEhdKFtOSF02KVtDSDJdW0NIMl01KVtjSF1jKG40KU9bQ0gyXVtDQEBdNzhOKFtDSDJdW0NASF0oRilbQ0gyXTcpW0NIMl1bQ0gyXVtDSDJdOA==

> <s_epik_cmdline>
J2VwaWtfYXBwJywgJy1pbWFlJywgJy9zaGFyZWQvd29yay9sZGlhei9HTV9TdXBlcmx1bWluYWwvS1JBU19HMTJEL2VwaWtfY2VudHJhbC02LTYvZXBpa19jZW50cmFsLTYtNi5tYWVneicsICctb21hZScsICdlcGlrX2NlbnRyYWwtNi02LW91dC5tYWVneicsICctbnQnLCAnLW1zJywgJzEnLCAnLXBoJywgJzYuOTAnLCAnLXBodCcsICcwLjUwJywgJy1zJywgJ3dhdGVyJw==

> <r_epik_Ionization_Penalty>
  0.1734

> <r_epik_Ionization_Penalty_Charging>
  0.1575

> <r_epik_Ionization_Penalty_Neutral>
  0.0158

> <r_epik_State_Penalty>
  0.0000

> <r_epik_Charging_Adjusted_Penalty>
0.157505940024036

> <i_epik_Tot_Q>
2

> <i_epik_Tot_abs_Q>
2

> <r_lp_tautomer_probability>
1

> <MW_cresset>
590

> <#Atoms_cresset>
43

> <SlogP_cresset>
3.5

> <TPSA_cresset>
114

> <Rof5_cresset>
2

> <_cresset_fieldpoints>
    -5       1.487343       5.692640     -25.353090    -13.8657
    -5      -0.400830       0.711520     -25.046888     -8.1093
    -5       1.124378       4.921856     -21.481998     -9.9135
    -5       3.808346      14.490633     -20.503464     -2.8522
    -5       7.704335      12.615177     -21.369337     -2.7771
    -5       5.391711      13.875917     -23.374624     -3.0697
    -5       6.935247      -0.066728     -24.285570     -2.5962
    -5      -2.310174       4.799576     -29.054062     -5.1155
    -6      -6.442768       3.932115     -27.969034      7.1612
    -6      -7.481482       3.970945     -25.785654      5.1622
    -6      -1.978105       6.326673     -22.856529      2.6914
    -6       7.486048       5.670406     -22.525412      6.1938
    -6       8.409019      -0.150007     -21.085958      9.1289
    -6       3.068615       0.302754     -25.786062      5.6950
    -7      -8.470213       3.237683     -22.425962     -1.0296
    -7      -2.811676       6.470124     -23.151674     -2.7151
    -7      -8.414458       4.071586     -22.361212     -1.0287
    -7      -3.701463       0.202930     -23.837240     -2.5086
    -7       7.761548       5.759110     -22.520285     -3.4672
    -7       8.048746       0.291187     -20.027239     -1.9217
    -7       3.108742       6.621302     -19.592216     -2.0773
    -7       4.094736       4.982792     -19.741728     -2.6466
    -7       4.202993       2.279574     -26.438417     -2.1497
    -7       2.364842       0.594881     -20.341574     -2.0888
    -7       6.821728      -0.294890     -24.735542     -1.9909
    -7       2.297994       4.099590     -20.402130     -2.6388
    -7       0.714590       0.454957     -23.423717     -2.7026
    -7       3.192888      11.271557     -18.313189     -1.3396
    -7       6.229753       7.658646     -18.829020     -1.9932
    -7       1.341380       8.674246     -21.778921     -2.4532
    -7       1.922284       5.004899     -26.111002     -2.6107
    -7       2.105339      13.358192     -22.813486     -1.2944
    -7       4.701036       8.024214     -25.257534     -3.1048
    -7       8.173383      12.390570     -21.535398     -1.9332
    -7       6.985541      11.346645     -18.806839     -1.5326
    -7       0.447039       5.603631     -21.231798     -2.7698
    -7       5.500460      13.668535     -24.141756     -1.5060
    -7      -1.796752       4.014287     -29.520754     -1.1758
    -7      -5.635406       1.620957     -28.180117     -1.2367
    -7      -5.110241       6.073640     -27.964705     -1.2458
    -8      -3.980865       3.356171     -22.994709      7.1599
    -8      -3.138496       3.472465     -25.208929      6.9903
    -8       5.735797       2.350511     -21.742872      5.2073
    -8       6.663914       9.570038     -22.416771      5.3489
    -8       4.168428       5.015145     -23.026514      3.6749
    -8       4.592137      10.550037     -21.557020      5.6637
    -8       6.018003       8.373142     -21.743761      5.0888
    -8       5.674693       9.604710     -21.230986      5.1954

> <s_i_glide_gridfile>
glide-grid_7RPZ_constraints

> <i_i_glide_lignum>
143

> <i_i_glide_rotatable_bonds>
7

> <r_i_docking_score>
-12.0972172821373

> <r_i_glide_ligand_efficiency>
-0.281330634468308

> <r_i_glide_ligand_efficiency_sa>
-0.985613197887941

> <r_i_glide_ligand_efficiency_ln>
-2.54079160467614

> <r_i_glide_gscore>
-12.0972172821373

> <r_i_glide_lipo>
-3.49833194952312

> <r_i_glide_hbond>
-0.914287917668862

> <r_i_glide_metal>
0

> <r_i_glide_rewards>
-0.985116936158138

> <r_i_glide_evdw>
-65.4675521850586

> <r_i_glide_ecoul>
-23.3404006958008

> <r_i_glide_erotb>
0.249471978432745

> <r_i_glide_esite>
-0.174514743596834

> <r_i_glide_emodel>
0

> <r_i_glide_energy>
-88.8079528808594

> <r_i_glide_einternal>
0

> <i_i_glide_confnum>
1

> <i_i_glide_posenum>
1

> <r_i_glide_eff_state_penalty>
0

> <Total Formal Charge>
0

> <Setting>
[Custom]

> <rmsDist>
0.08

> <rmsAng>
2.5

> <Frag ID>
1070

> <Attachment Point 1 Type>
Car

> <Attachment Point 2 Type>
Car

> <Attachment Point 3 Type>
Car

> <Unstable>
false

> <Database>
VEHICLe

> <Attachment Types>
Csp3|Csp3|Csp3

> <Frequency>
1

> <TorsFreq Frag>


> <Strain 1>
1.4

> <TorsFreq 1>
High

> <Strain 2>
0

> <TorsFreq 2>
Medium

> <Strain 3>
2.7

> <TorsFreq 3>
High

> <BIF>
0.459

> <Cluster SMILES>
[Fm]c1cc([Es])n2[nH]nc([Cf])[nH]n2n1

> <Cluster Number>
55

> <Rank>
142

> <Favorite_cresset>
false

> <BIF%>
46

> <Score>
0.903

> <Field Score>
0.827

> <Shape Score>
0.98

> <Docking Score>
0

> <Flexibility_cresset>
5.9

> <#RB_cresset>
6

> <Radial Plot_cresset>
0.437

> <2D Sim_cresset>
0.646

> <Fragment SMILES>
[Fm]c1cc([Es])n2[nH]nc([Cf])[nH]n2n1

> <Parent Aux1>
Training dataset hits: 0

> <s_epik_Chemistry_Notes>
This compound has an imine and may undergo hydrolysis.

> <Parent Aux2>
Beilstein hits: 0

> <s_m_subgroup_title>
glide-dock_SP_rescore_Mirati_central-6-6_pv

> <s_m_subgroupid>
glide-dock_SP_rescore_Mirati_central-6-6_pv

> <b_m_subgroup_collapsed>
0

$$$$
[Fm]c1cc([Es])c2c(nc([Cf])nc2n1)C
                    3D
 Schrodinger Suite 2022-3.
 80 87  0  0  1  0            999 V2000
   -5.0146    3.4175  -22.2134 C   0  0  0  0  0  0
   -5.1964    3.5926  -23.5422 C   0  0  0  0  0  0
   -3.7320    3.2262  -21.7043 C   0  0  0  0  0  0
   -2.7793    3.4500  -23.9310 C   0  0  0  0  0  0
   -2.6283    3.2279  -22.5283 C   0  0  0  0  0  0
   -4.0924    3.5934  -24.4109 C   0  0  0  0  0  0
   -3.3436    3.7572  -26.6758 C   0  0  0  0  0  0
    6.6507    3.2193  -21.4091 C   0  0  0  0  0  0
    6.0378    3.0060  -23.9315 C   0  0  0  0  0  0
   -4.3623    3.7435  -25.7781 C   0  0  0  0  0  0
   -1.7325    3.5248  -24.8936 C   0  0  0  0  0  0
    4.9589    7.4628  -22.1857 C   0  0  0  0  0  0
    4.3685    1.4794  -22.9195 C   0  0  0  0  0  0
    5.4094    1.1581  -21.8248 C   0  0  2  0  0  0
    6.9961    2.5956  -22.7815 C   0  0  2  0  0  0
    5.5523    2.3097  -20.8103 C   0  0  0  0  0  0
   -2.0241    3.6475  -26.2237 C   0  0  0  0  0  0
    5.2989    8.9542  -21.9701 C   0  0  1  0  0  0
    4.4417    9.6115  -20.8636 C   0  0  0  0  0  0
    3.9723   10.9393  -21.4739 C   0  0  2  0  0  0
    3.9450   10.6521  -22.9854 C   0  0  0  0  0  0
    6.2614   10.3801  -23.6535 C   0  0  0  0  0  0
    7.3846    9.5061  -23.0899 C   0  0  0  0  0  0
    6.8127    9.1299  -21.7196 C   0  0  0  0  0  0
   -1.3629    2.9579  -21.8892 C   0  0  0  0  0  0
   -0.3029    2.7193  -21.3353 C   0  0  0  0  0  0
    4.9062   11.9325  -21.2005 F   0  0  0  0  0  0
   -3.5886    3.0293  -20.3843 F   0  0  0  0  0  0
    4.6032    2.7513  -23.6440 N   0  0  0  0  0  0
    6.7136    1.1893  -22.4891 N   0  3  1  0  0  0
    5.0334    9.6913  -23.2182 N   0  3  1  0  0  0
    3.5719    7.2479  -22.5467 O   0  0  0  0  0  0
   -3.6060    3.9017  -28.0040 O   0  0  0  0  0  0
   -5.8005    3.4174  -21.5954 H   0  0  0  0  0  0
   -6.1188    3.7218  -23.9048 H   0  0  0  0  0  0
    7.5504    3.2344  -20.7764 H   0  0  0  0  0  0
    6.2874    4.2473  -21.5545 H   0  0  0  0  0  0
    6.1424    4.0830  -24.1292 H   0  0  0  0  0  0
    6.2917    2.4401  -24.8400 H   0  0  0  0  0  0
   -5.3072    3.8403  -26.0913 H   0  0  0  0  0  0
    5.5829    7.0579  -22.9960 H   0  0  0  0  0  0
    5.1544    6.9044  -21.2584 H   0  0  0  0  0  0
    4.3709    0.6789  -23.6740 H   0  0  0  0  0  0
    3.3693    1.5522  -22.4653 H   0  0  0  0  0  0
    5.1506    0.1999  -21.3505 H   0  0  0  0  0  0
    8.0173    2.8352  -23.1129 H   0  0  0  0  0  0
    5.8738    1.9485  -19.8223 H   0  0  0  0  0  0
    4.6189    2.8823  -20.7055 H   0  0  0  0  0  0
   -1.2791    3.6827  -26.8900 H   0  0  0  0  0  0
    3.5958    8.9535  -20.6157 H   0  0  0  0  0  0
    5.0588    9.7690  -19.9667 H   0  0  0  0  0  0
    3.0467   11.3576  -21.0516 H   0  0  0  0  0  0
    2.9677   10.2287  -23.2606 H   0  0  0  0  0  0
    4.1082   11.5882  -23.5395 H   0  0  0  0  0  0
    6.3415   11.3945  -23.2358 H   0  0  0  0  0  0
    6.3478   10.4269  -24.7491 H   0  0  0  0  0  0
    7.5420    8.6405  -23.7501 H   0  0  0  0  0  0
    8.3120   10.0946  -23.0296 H   0  0  0  0  0  0
    6.9714    9.9245  -20.9757 H   0  0  0  0  0  0
    7.2341    8.1860  -21.3434 H   0  0  0  0  0  0
    0.6532    2.5041  -20.8357 H   0  0  0  0  0  0
    7.4764    0.7656  -21.8193 H   0  0  0  0  0  0
   -4.6456    3.9874  -28.3531 H   0  0  0  0  0  0
    1.8630    5.9314  -23.1814 N   0  0  0  0  0  0
    0.4318    2.5109  -25.0200 N   0  0  0  0  0  0
    0.0867    4.6416  -23.9355 N   0  0  0  0  0  0
    2.2983    3.6554  -24.0009 C   0  0  0  0  0  0
    4.0680    4.9941  -23.1079 C   0  0  0  0  0  0
    2.5247    1.4277  -25.2697 C   0  0  0  0  0  0
    1.4225    4.7358  -23.6946 C   0  0  0  0  0  0
    3.6669    3.7913  -23.5935 C   0  0  0  0  0  0
    1.7280    2.5900  -24.7130 C   0  0  0  0  0  0
    3.1788    6.0495  -22.9488 C   0  0  0  0  0  0
   -0.3167    3.5453  -24.5849 C   0  0  0  0  0  0
    5.0220    5.1192  -22.8557 H   0  0  0  0  0  0
    1.8462    0.7305  -25.7831 H   0  0  0  0  0  0
    3.0339    0.9047  -24.4468 H   0  0  0  0  0  0
    3.2724    1.8041  -25.9834 H   0  0  0  0  0  0
    6.6680    0.5963  -23.4145 H   0  0  0  0  0  0
    4.7252    8.9970  -24.0138 H   0  0  0  0  0  0
  1  2  2  0  0  0
  1  3  1  0  0  0
  1 34  1  0  0  0
  2  6  1  0  0  0
  2 35  1  0  0  0
  3  5  2  0  0  0
  3 28  1  0  0  0
  4  5  1  0  0  0
  4  6  2  0  0  0
  4 11  1  0  0  0
  5 25  1  0  0  0
  6 10  1  0  0  0
  7 10  2  0  0  0
  7 17  1  0  0  0
  7 33  1  0  0  0
  8 15  1  0  0  0
  8 16  1  0  0  0
  8 36  1  0  0  0
  8 37  1  0  0  0
  9 15  1  0  0  0
  9 29  1  0  0  0
  9 38  1  0  0  0
  9 39  1  0  0  0
 10 40  1  0  0  0
 11 17  2  0  0  0
 11 74  1  0  0  0
 12 18  1  0  0  0
 12 32  1  0  0  0
 12 41  1  0  0  0
 12 42  1  0  0  0
 13 14  1  0  0  0
 13 29  1  0  0  0
 13 43  1  0  0  0
 13 44  1  0  0  0
 14 16  1  0  0  0
 14 30  1  0  0  0
 14 45  1  0  0  0
 15 30  1  0  0  0
 15 46  1  0  0  0
 16 47  1  0  0  0
 16 48  1  0  0  0
 17 49  1  0  0  0
 18 19  1  0  0  0
 18 24  1  0  0  0
 18 31  1  0  0  0
 19 20  1  0  0  0
 19 50  1  0  0  0
 19 51  1  0  0  0
 20 21  1  0  0  0
 20 27  1  0  0  0
 20 52  1  0  0  0
 21 31  1  0  0  0
 21 53  1  0  0  0
 21 54  1  0  0  0
 22 23  1  0  0  0
 22 31  1  0  0  0
 22 55  1  0  0  0
 22 56  1  0  0  0
 23 24  1  0  0  0
 23 57  1  0  0  0
 23 58  1  0  0  0
 24 59  1  0  0  0
 24 60  1  0  0  0
 25 26  3  0  0  0
 26 61  1  0  0  0
 29 71  1  0  0  0
 30 62  1  0  0  0
 30 79  1  0  0  0
 31 80  1  0  0  0
 32 73  1  0  0  0
 33 63  1  0  0  0
 64 70  1  0  0  0
 64 73  2  0  0  0
 65 72  1  0  0  0
 65 74  2  0  0  0
 66 70  2  0  0  0
 66 74  1  0  0  0
 67 70  1  0  0  0
 67 71  1  0  0  0
 67 72  2  0  0  0
 68 71  2  0  0  0
 68 73  1  0  0  0
 68 75  1  0  0  0
 69 72  1  0  0  0
 69 76  1  0  0  0
 69 77  1  0  0  0
 69 78  1  0  0  0
M  CHG  2  30   1  31   1
M  END
> <s_m_entry_id>
17

> <s_m_entry_name>
Mirati-central-6-6-ring-fragments.175

> <s_m_Source_Path>
/home/julia/Documents/BSC/pc_bsc/julia/results/KRAS/rescore_fragments_KRAS_Soumya/glide-dock_SP_rescore_Mirati_central-6-6

> <s_m_Source_File>
glide-dock_SP_rescore_Mirati_central-6-6_pv.maegz

> <i_m_Source_File_Index>
17

> <s_m_job_name>
epik_central-6-6

> <s_epik_input>
W0NIXSNDYzFjKEYpW2NIXVtjSF1jKGMxMilbY0hdYyhbT0hdKVtjSF1jMi1jKG5jM1tDSDNdKW5jKGMzNCluYyhPW0NIMl1bQ0BAXTU2TihbQ0gyXVtDQEhdKEYpW0NIMl01KVtDSDJdW0NIMl1bQ0gyXTYpW2NIXWM0TihbQ0gyXVtDQEhdNzgpW0NIMl1bQ0BIXShbTkhdOClbQ0gyXVtDSDJdNw==

> <s_epik_cmdline>
J2VwaWtfYXBwJywgJy1pbWFlJywgJy9zaGFyZWQvd29yay9sZGlhei9HTV9TdXBlcmx1bWluYWwvS1JBU19HMTJEL2VwaWtfY2VudHJhbC02LTYvZXBpa19jZW50cmFsLTYtNi5tYWVneicsICctb21hZScsICdlcGlrX2NlbnRyYWwtNi02LW91dC5tYWVneicsICctbnQnLCAnLW1zJywgJzEnLCAnLXBoJywgJzYuOTAnLCAnLXBodCcsICcwLjUwJywgJy1zJywgJ3dhdGVyJw==

> <r_epik_Ionization_Penalty>
  0.0416

> <r_epik_Ionization_Penalty_Charging>
  0.0326

> <r_epik_Ionization_Penalty_Neutral>
  0.0091

> <r_epik_State_Penalty>
  0.0285

> <r_epik_Charging_Adjusted_Penalty>
0.0610911575884923

> <i_epik_Tot_Q>
2

> <i_epik_Tot_abs_Q>
2

> <r_lp_tautomer_probability>
1

> <MW_cresset>
597

> <#Atoms_cresset>
44

> <SlogP_cresset>
5.2

> <TPSA_cresset>
87

> <Rof5_cresset>
2

> <_cresset_fieldpoints>
    -5      -0.722342       6.285066     -23.208263    -15.2470
    -5      -0.658257       0.781205     -25.355888     -8.1599
    -5       0.125822       6.931176     -23.036810    -14.9592
    -5       3.652911      14.322520     -20.326902     -2.8884
    -5       5.286086      13.958563     -23.152203     -2.9202
    -5       7.662533      12.653776     -21.284573     -2.4778
    -5       6.846615      -0.061189     -24.179445     -2.6522
    -6      -6.371986       3.995529     -28.005939      7.4813
    -6       7.505619       5.814429     -22.933582      7.1050
    -6       8.632925       0.108301     -21.129379      9.3305
    -6       3.213835      -1.246571     -22.625446      2.9542
    -6       2.589558       1.065133     -20.223127      2.8243
    -6       5.427377       0.240894     -26.004436      2.5859
    -7      -8.196301       4.581779     -22.391859     -1.0288
    -7      -0.700558       0.380672     -23.918650     -3.0446
    -7       7.825201       5.917760     -22.920265     -3.4613
    -7       8.320181       0.618508     -20.052595     -1.9323
    -7       3.968229       5.176532     -19.777065     -2.7260
    -7       7.126997       6.084141     -19.762478     -2.1573
    -7       4.523006       3.941769     -26.702383     -2.5129
    -7       6.738104      -0.257382     -24.669462     -2.1352
    -7      -1.381749       6.294058     -22.749758     -3.0468
    -7       3.133630       6.413843     -19.686413     -2.2695
    -7       1.040355       0.124108     -22.469378     -2.5349
    -7       2.559523       1.181768     -20.014370     -2.2608
    -7       2.449361       4.214865     -20.286480     -2.9864
    -7       6.161089       7.493196     -18.905285     -2.0306
    -7       1.193289       4.624236     -27.295271     -2.2897
    -7       3.146333      11.113759     -18.265078     -1.3385
    -7       1.275037       8.594996     -21.939823     -2.5936
    -7       2.144581      13.427504     -22.681776     -1.2937
    -7       8.161958      12.342556     -21.451950     -1.9172
    -7       4.496963       8.125881     -25.274446     -3.1931
    -7       6.897130      11.096727     -18.694225     -1.5427
    -7       5.496960      13.733088     -23.962902     -1.5053
    -7      -5.484072       1.787310     -28.294729     -1.2362
    -7      -1.663403       4.002169     -29.575384     -1.1946
    -7      -5.132944       6.243891     -27.947323     -1.2441
    -7       5.665395       0.080417     -25.821978     -1.9744
    -8      -3.895072       3.417514     -23.062183      7.1623
    -8      -3.058835       3.612906     -25.268209      7.0039
    -8       5.884437       2.582359     -21.771299      5.2566
    -8       6.609333       9.568014     -22.417336      5.3591
    -8       2.988980       4.532590     -23.509979      5.1668
    -8       2.715417       2.620442     -24.453852      4.7238
    -8       2.434354       3.686727     -23.977779      4.8103
    -8       4.570560      10.485930     -21.529799      5.6845

> <s_i_glide_gridfile>
glide-grid_7RPZ_constraints

> <i_i_glide_lignum>
175

> <i_i_glide_rotatable_bonds>
7

> <r_i_docking_score>
-12.0722737841016

> <r_i_glide_ligand_efficiency>
-0.274369858729581

> <r_i_glide_ligand_efficiency_sa>
-0.968621172807808

> <r_i_glide_ligand_efficiency_ln>
-2.52336857605169

> <r_i_glide_gscore>
-12.1007737841016

> <r_i_glide_lipo>
-3.73459387091226

> <r_i_glide_hbond>
-0.960684795890706

> <r_i_glide_metal>
0

> <r_i_glide_rewards>
-0.791160326535728

> <r_i_glide_evdw>
-57.3702774047852

> <r_i_glide_ecoul>
-25.3591766357422

> <r_i_glide_erotb>
0.235825549969414

> <r_i_glide_esite>
-0.177769975131704

> <r_i_glide_emodel>
0

> <r_i_glide_energy>
-82.7294540405273

> <r_i_glide_einternal>
0

> <i_i_glide_confnum>
1

> <i_i_glide_posenum>
1

> <r_i_glide_eff_state_penalty>
0.0285

> <Total Formal Charge>
0

> <Setting>
[Custom]

> <rmsDist>
0.12

> <rmsAng>
3.4

> <Frag ID>
679187

> <Attachment Point 1 Type>
Car

> <Attachment Point 2 Type>
Car

> <Attachment Point 3 Type>
Car

> <Unstable>
false

> <Database>
ChEMBL_rare

> <Attachment Types>
Osp3|Csp3,Csp2,Car|Csp3,Car

> <Frequency>
4

> <Parent Title>
CHEMBL1479154

> <TorsFreq Frag>
High

> <Strain 1>
1.8

> <TorsFreq 1>
High

> <Strain 2>
0

> <TorsFreq 2>
Medium

> <Strain 3>
1

> <TorsFreq 3>
Medium

> <BIF>
0.423

> <Cluster SMILES>
[Fm]c1cc([Es])c2cnc([Cf])nc2n1

> <Cluster Number>
18

> <Rank>
174

> <Favorite_cresset>
false

> <BIF%>
42

> <Score>
0.897

> <Field Score>
0.836

> <Shape Score>
0.958

> <Docking Score>
0

> <Flexibility_cresset>
5.5

> <#RB_cresset>
6

> <Radial Plot_cresset>
0.312

> <2D Sim_cresset>
0.758

> <Fragment SMILES>
[Fm]c1cc([Es])c2c(nc([Cf])nc2n1)C

> <s_m_subgroup_title>
glide-dock_SP_rescore_Mirati_central-6-6_pv

> <s_m_subgroupid>
glide-dock_SP_rescore_Mirati_central-6-6_pv

> <b_m_subgroup_collapsed>
0

$$$$
[Fm]c1nn2-c([nH]nc([Cf])o2)c([Es])o1
                    3D
 Schrodinger Suite 2022-3.
 76 83  0  0  1  0            999 V2000
   -5.0660    3.3698  -22.1551 C   0  0  0  0  0  0
   -5.2568    3.5110  -23.4875 C   0  0  0  0  0  0
   -3.7815    3.1845  -21.6495 C   0  0  0  0  0  0
   -2.8403    3.3560  -23.8850 C   0  0  0  0  0  0
   -2.6835    3.1632  -22.4787 C   0  0  0  0  0  0
   -4.1570    3.4876  -24.3626 C   0  0  0  0  0  0
   -3.4064    3.5828  -26.6324 C   0  0  0  0  0  0
    6.2849    3.2105  -21.3082 C   0  0  0  0  0  0
    5.9728    3.1531  -23.8383 C   0  0  0  0  0  0
   -4.4266    3.5988  -25.7339 C   0  0  0  0  0  0
   -1.7930    3.4043  -24.8497 C   0  0  0  0  0  0
    5.0182    7.3542  -22.1136 C   0  0  0  0  0  0
    4.3085    1.4681  -23.1065 C   0  0  0  0  0  0
    5.2935    1.0774  -21.9821 C   0  0  2  0  0  0
    6.8472    2.6936  -22.6486 C   0  0  2  0  0  0
    5.2877    2.1221  -20.8492 C   0  0  0  0  0  0
   -2.0861    3.4824  -26.1841 C   0  0  0  0  0  0
    5.3898    8.8458  -21.9577 C   0  0  1  0  0  0
    4.5688    9.5531  -20.8527 C   0  0  0  0  0  0
    4.0459   10.8425  -21.5061 C   0  0  2  0  0  0
    4.0006   10.5003  -23.0046 C   0  0  0  0  0  0
    6.3100   10.2304  -23.6948 C   0  0  0  0  0  0
    7.4410    9.3567  -23.1460 C   0  0  0  0  0  0
    6.9111    9.0053  -21.7525 C   0  0  0  0  0  0
   -1.4207    2.8881  -21.8361 C   0  0  0  0  0  0
   -0.3603    2.6393  -21.2859 C   0  0  0  0  0  0
    4.9430   11.8815  -21.2846 F   0  0  0  0  0  0
   -3.6252    3.0118  -20.3283 F   0  0  0  0  0  0
    4.5419    2.7880  -23.7430 N   0  0  0  0  0  0
    6.6462    1.2512  -22.5083 N   0  3  1  0  0  0
    5.0966    9.5432  -23.2227 N   0  3  1  0  0  0
    3.6474    7.2223  -22.5370 O   0  0  0  0  0  0
   -3.6717    3.6913  -27.9632 O   0  0  0  0  0  0
   -5.8479    3.3873  -21.5325 H   0  0  0  0  0  0
   -6.1822    3.6308  -23.8466 H   0  0  0  0  0  0
    7.1081    3.3371  -20.5897 H   0  0  0  0  0  0
    5.7861    4.1777  -21.4684 H   0  0  0  0  0  0
    6.0126    4.2493  -23.9207 H   0  0  0  0  0  0
    6.3511    2.7016  -24.7673 H   0  0  0  0  0  0
   -5.3717    3.6859  -26.0506 H   0  0  0  0  0  0
    5.6728    6.8900  -22.8660 H   0  0  0  0  0  0
    5.1471    6.8414  -21.1490 H   0  0  0  0  0  0
    4.3616    0.7244  -23.9152 H   0  0  0  0  0  0
    3.2855    1.4990  -22.7034 H   0  0  0  0  0  0
    5.0632    0.0535  -21.6527 H   0  0  0  0  0  0
    7.8901    2.9903  -22.8339 H   0  0  0  0  0  0
    5.6284    1.6911  -19.8962 H   0  0  0  0  0  0
    4.2923    2.5703  -20.7138 H   0  0  0  0  0  0
   -1.3439    3.5000  -26.8540 H   0  0  0  0  0  0
    3.7450    8.8984  -20.5321 H   0  0  0  0  0  0
    5.2206    9.7697  -19.9935 H   0  0  0  0  0  0
    3.1134   11.2445  -21.0831 H   0  0  0  0  0  0
    3.0246   10.0561  -23.2499 H   0  0  0  0  0  0
    4.1448   11.4174  -23.5947 H   0  0  0  0  0  0
    6.4030   11.2484  -23.2885 H   0  0  0  0  0  0
    6.3740   10.2664  -24.7923 H   0  0  0  0  0  0
    7.5731    8.4780  -23.7944 H   0  0  0  0  0  0
    8.3745    9.9380  -23.1215 H   0  0  0  0  0  0
    7.1007    9.8071  -21.0237 H   0  0  0  0  0  0
    7.3314    8.0609  -21.3763 H   0  0  0  0  0  0
    0.5956    2.4150  -20.7899 H   0  0  0  0  0  0
    7.3719    0.8171  -21.8048 H   0  0  0  0  0  0
   -4.7120    3.7701  -28.3120 H   0  0  0  0  0  0
    4.0404    5.0629  -22.9901 O   0  0  0  0  0  0
    0.0348    4.5187  -23.7950 O   0  0  0  0  0  0
    1.9579    5.9477  -23.2271 N   0  0  0  0  0  0
    1.4554    4.7280  -23.6477 N   0  0  0  0  0  0
    0.4351    2.5048  -24.8684 N   0  0  0  0  0  0
    1.7995    2.5439  -24.5234 N   0  0  0  0  0  0
    2.3259    3.6786  -23.8940 C   0  0  0  0  0  0
    3.6025    3.8263  -23.5449 C   0  0  0  0  0  0
   -0.3943    3.4563  -24.5099 C   0  0  0  0  0  0
    3.2203    6.0444  -22.9228 C   0  0  0  0  0  0
    2.4485    1.6847  -24.7484 H   0  0  0  0  0  0
    6.7294    0.7436  -23.4806 H   0  0  0  0  0  0
    4.7840    8.8223  -23.9924 H   0  0  0  0  0  0
  1  2  2  0  0  0
  1  3  1  0  0  0
  1 34  1  0  0  0
  2  6  1  0  0  0
  2 35  1  0  0  0
  3  5  2  0  0  0
  3 28  1  0  0  0
  4  5  1  0  0  0
  4  6  2  0  0  0
  4 11  1  0  0  0
  5 25  1  0  0  0
  6 10  1  0  0  0
  7 10  2  0  0  0
  7 17  1  0  0  0
  7 33  1  0  0  0
  8 15  1  0  0  0
  8 16  1  0  0  0
  8 36  1  0  0  0
  8 37  1  0  0  0
  9 15  1  0  0  0
  9 29  1  0  0  0
  9 38  1  0  0  0
  9 39  1  0  0  0
 10 40  1  0  0  0
 11 17  2  0  0  0
 11 72  1  0  0  0
 12 18  1  0  0  0
 12 32  1  0  0  0
 12 41  1  0  0  0
 12 42  1  0  0  0
 13 14  1  0  0  0
 13 29  1  0  0  0
 13 43  1  0  0  0
 13 44  1  0  0  0
 14 16  1  0  0  0
 14 30  1  0  0  0
 14 45  1  0  0  0
 15 30  1  0  0  0
 15 46  1  0  0  0
 16 47  1  0  0  0
 16 48  1  0  0  0
 17 49  1  0  0  0
 18 19  1  0  0  0
 18 24  1  0  0  0
 18 31  1  0  0  0
 19 20  1  0  0  0
 19 50  1  0  0  0
 19 51  1  0  0  0
 20 21  1  0  0  0
 20 27  1  0  0  0
 20 52  1  0  0  0
 21 31  1  0  0  0
 21 53  1  0  0  0
 21 54  1  0  0  0
 22 23  1  0  0  0
 22 31  1  0  0  0
 22 55  1  0  0  0
 22 56  1  0  0  0
 23 24  1  0  0  0
 23 57  1  0  0  0
 23 58  1  0  0  0
 24 59  1  0  0  0
 24 60  1  0  0  0
 25 26  3  0  0  0
 26 61  1  0  0  0
 29 71  1  0  0  0
 30 62  1  0  0  0
 30 75  1  0  0  0
 31 76  1  0  0  0
 32 73  1  0  0  0
 33 63  1  0  0  0
 64 71  1  0  0  0
 64 73  1  0  0  0
 65 67  1  0  0  0
 65 72  1  0  0  0
 66 67  1  0  0  0
 66 73  2  0  0  0
 67 70  1  0  0  0
 68 69  1  0  0  0
 68 72  2  0  0  0
 69 70  1  0  0  0
 69 74  1  0  0  0
 70 71  2  0  0  0
M  CHG  2  30   1  31   1
M  END
> <s_m_entry_id>
18

> <s_m_entry_name>
Mirati-central-6-6-ring-fragments.58

> <s_m_Source_Path>
/home/julia/Documents/BSC/pc_bsc/julia/results/KRAS/rescore_fragments_KRAS_Soumya/glide-dock_SP_rescore_Mirati_central-6-6

> <s_m_Source_File>
glide-dock_SP_rescore_Mirati_central-6-6_pv.maegz

> <i_m_Source_File_Index>
18

> <s_m_job_name>
epik_central-6-6

> <s_epik_input>
W0NIXSNDYzFjKEYpW2NIXVtjSF1jKGMxMilbY0hdYyhbT0hdKVtjSF1jMi1jKG8zKW5bbkhdYyhuMzQpYyhOKFtDSDJdW0NASF01NilbQ0gyXVtDQEhdKFtOSF02KVtDSDJdW0NIMl01KW9jKG40KU9bQ0gyXVtDQEBdNzhOKFtDSDJdW0NASF0oRilbQ0gyXTcpW0NIMl1bQ0gyXVtDSDJdOA==

> <s_epik_cmdline>
J2VwaWtfYXBwJywgJy1pbWFlJywgJy9zaGFyZWQvd29yay9sZGlhei9HTV9TdXBlcmx1bWluYWwvS1JBU19HMTJEL2VwaWtfY2VudHJhbC02LTYvZXBpa19jZW50cmFsLTYtNi5tYWVneicsICctb21hZScsICdlcGlrX2NlbnRyYWwtNi02LW91dC5tYWVneicsICctbnQnLCAnLW1zJywgJzEnLCAnLXBoJywgJzYuOTAnLCAnLXBodCcsICcwLjUwJywgJy1zJywgJ3dhdGVyJw==

> <r_epik_Ionization_Penalty>
  0.2222

> <r_epik_Ionization_Penalty_Charging>
  0.2002

> <r_epik_Ionization_Penalty_Neutral>
  0.0219

> <r_epik_State_Penalty>
  0.0000

> <r_epik_Charging_Adjusted_Penalty>
0.20024489925232

> <i_epik_Tot_Q>
2

> <i_epik_Tot_abs_Q>
2

> <r_lp_tautomer_probability>
1

> <MW_cresset>
592

> <#Atoms_cresset>
43

> <SlogP_cresset>
3.1

> <TPSA_cresset>
121

> <Rof5_cresset>
2

> <_cresset_fieldpoints>
    -5      -0.514936       0.633830     -24.776369     -6.5743
    -5       1.488005       3.213414     -26.729483     -5.7351
    -5       3.860816      14.388170     -20.475803     -2.5005
    -5       5.443883      13.789087     -23.330402     -2.6124
    -5       7.729562      12.502630     -21.334368     -2.3574
    -5      -0.040523       6.530154     -23.019855     -9.2296
    -5       6.968562       0.207405     -24.283335     -3.6986
    -5      -2.524053       2.582766     -29.263691     -4.7221
    -5      -2.461115       5.157659     -28.883638     -4.8954
    -6      -6.438612       3.870507     -27.993029      6.9335
    -6      -7.483335       3.817253     -25.838268      4.7835
    -6       8.472677       0.120095     -21.055172      8.5419
    -6       2.949084       0.159621     -25.600420      4.8902
    -6       2.417136       0.665250     -20.445910      2.3421
    -6       7.804108       5.804174     -22.441208      4.7848
    -7      -8.241022       4.537862     -22.311621     -1.0276
    -7       0.716553       0.465809     -23.363081     -2.8598
    -7       7.968931       5.801915     -22.604616     -3.1671
    -7       8.300436       0.861923     -20.069605     -1.9333
    -7       6.313161       7.498347     -18.870081     -2.0020
    -7       4.848529       7.847725     -25.280970     -2.9913
    -7       7.248248       5.952332     -19.881983     -2.1652
    -7       6.878685      -0.001892     -24.778763     -2.0113
    -7       2.342364       0.631120     -20.353924     -2.1286
    -7       3.664243       4.956584     -19.937981     -2.6614
    -7       2.417115       4.270560     -20.364424     -2.6742
    -7       3.259747      11.090714     -18.293066     -1.3415
    -7       1.364660       8.597075     -21.716337     -2.4217
    -7       1.286203       2.659500     -27.164019     -2.0890
    -7       5.538660      13.526039     -24.151640     -1.5178
    -7       8.218725      12.232758     -21.551538     -1.9319
    -7       3.050893       6.479609     -19.613361     -1.9632
    -7       2.091491      13.199492     -22.781309     -1.2944
    -7       4.250775       2.022110     -26.408899     -2.2503
    -7      -1.784622       4.034191     -29.536566     -1.1773
    -7      -3.609168       0.193889     -23.821888     -2.5049
    -7      -5.586211       1.615960     -28.210093     -1.2368
    -7      -5.163215       6.072234     -27.939411     -1.2434
    -7      -0.263950       5.973185     -22.048231     -3.1272
    -8      -3.954602       3.344852     -23.010893      7.1559
    -8      -3.122443       3.480786     -25.220755      6.9891
    -8       6.695389       9.442448     -22.449102      5.3459
    -8       5.740526       9.391748     -21.243645      5.1827
    -8       4.607586      10.433729     -21.562201      5.6471
    -8       5.642915       2.494210     -21.764471      5.2409

> <s_i_glide_gridfile>
glide-grid_7RPZ_constraints

> <i_i_glide_lignum>
58

> <i_i_glide_rotatable_bonds>
7

> <r_i_docking_score>
-12.029468138444

> <r_i_glide_ligand_efficiency>
-0.279755072987069

> <r_i_glide_ligand_efficiency_sa>
-0.980093378857469

> <r_i_glide_ligand_efficiency_ln>
-2.52656217889125

> <r_i_glide_gscore>
-12.029468138444

> <r_i_glide_lipo>
-3.46830466720916

> <r_i_glide_hbond>
-0.951235834525574

> <r_i_glide_metal>
0

> <r_i_glide_rewards>
-0.980724719853809

> <r_i_glide_evdw>
-64.4906387329102

> <r_i_glide_ecoul>
-23.188159942627

> <r_i_glide_erotb>
0.245594467563133

> <r_i_glide_esite>
-0.172041456379014

> <r_i_glide_emodel>
0

> <r_i_glide_energy>
-87.6787986755371

> <r_i_glide_einternal>
0

> <i_i_glide_confnum>
1

> <i_i_glide_posenum>
1

> <r_i_glide_eff_state_penalty>
0

> <Total Formal Charge>
0

> <Setting>
[Custom]

> <rmsDist>
0.08

> <rmsAng>
2.9

> <Frag ID>
102266

> <Attachment Point 1 Type>
Car

> <Attachment Point 2 Type>
Car

> <Attachment Point 3 Type>
Car

> <Unstable>
false

> <Database>
VEHICLe

> <Attachment Types>
Csp3|Csp3|Csp3

> <Frequency>
1

> <TorsFreq Frag>


> <Strain 1>
0

> <TorsFreq 1>
High

> <Strain 2>
0

> <TorsFreq 2>
Medium

> <Strain 3>
1.8

> <TorsFreq 3>
High

> <BIF>
0.587

> <Cluster SMILES>
[Fm]c1nn2-c([nH]nc([Cf])o2)c([Es])o1

> <Cluster Number>
19

> <Rank>
57

> <Favorite_cresset>
false

> <BIF%>
59

> <Score>
0.926

> <Field Score>
0.871

> <Shape Score>
0.982

> <Docking Score>
0

> <Flexibility_cresset>
5.6

> <#RB_cresset>
6

> <Radial Plot_cresset>
0.443

> <2D Sim_cresset>
0.684

> <Fragment SMILES>
[Fm]c1nn2-c([nH]nc([Cf])o2)c([Es])o1

> <Parent Aux1>
Training dataset hits: 0

> <s_epik_Chemistry_Notes>
This compound has an imine and may undergo hydrolysis. This compound has a N-S or N-O group and may undergo hydrolysis at high or low pH.

> <Parent Aux2>
Beilstein hits: 0

> <s_m_subgroup_title>
glide-dock_SP_rescore_Mirati_central-6-6_pv

> <s_m_subgroupid>
glide-dock_SP_rescore_Mirati_central-6-6_pv

> <b_m_subgroup_collapsed>
0

$$$$
[Fm]c1nc([Es])c2c(n1)nc([Cf])nn2
                    3D
 Schrodinger Suite 2022-3.
 75 82  0  0  1  0            999 V2000
   -5.0236    3.4303  -22.1429 C   0  0  0  0  0  0
   -5.1980    3.5830  -23.4754 C   0  0  0  0  0  0
   -3.7520    3.1957  -21.6234 C   0  0  0  0  0  0
   -2.7834    3.3698  -23.8471 C   0  0  0  0  0  0
   -2.6423    3.1483  -22.4400 C   0  0  0  0  0  0
   -4.0919    3.5317  -24.3397 C   0  0  0  0  0  0
   -3.3236    3.6232  -26.6018 C   0  0  0  0  0  0
    6.2460    3.0595  -21.2555 C   0  0  0  0  0  0
    5.9709    3.2164  -23.7886 C   0  0  0  0  0  0
   -4.3524    3.6392  -25.7147 C   0  0  0  0  0  0
   -1.7318    3.4394  -24.8045 C   0  0  0  0  0  0
    4.9534    7.3626  -22.1621 C   0  0  0  0  0  0
    4.2584    1.4622  -23.2764 C   0  0  0  0  0  0
    5.2088    1.0117  -22.1344 C   0  0  2  0  0  0
    6.8195    2.6514  -22.6270 C   0  0  2  0  0  0
    5.1782    1.9847  -20.9358 C   0  0  0  0  0  0
   -2.0061    3.5450  -26.1376 C   0  0  0  0  0  0
    5.3195    8.8512  -21.9723 C   0  0  1  0  0  0
    4.4780    9.5627  -20.8850 C   0  0  0  0  0  0
    3.9951   10.8638  -21.5462 C   0  0  2  0  0  0
    3.9601   10.5137  -23.0426 C   0  0  0  0  0  0
    6.2782   10.2205  -23.7011 C   0  0  0  0  0  0
    7.4023    9.3694  -23.1020 C   0  0  0  0  0  0
    6.8348    9.0024  -21.7275 C   0  0  0  0  0  0
   -1.3880    2.8021  -21.8106 C   0  0  0  0  0  0
   -0.3368    2.4803  -21.2776 C   0  0  0  0  0  0
    4.9161   11.8825  -21.3215 F   0  0  0  0  0  0
   -3.6388    2.9834  -20.3030 F   0  0  0  0  0  0
    4.5476    2.8790  -23.5855 N   0  0  0  0  0  0
    6.5905    1.2066  -22.5837 N   0  3  1  0  0  0
    5.0515    9.5469  -23.2425 N   0  3  1  0  0  0
    3.5746    7.2196  -22.5568 O   0  0  0  0  0  0
   -3.5689    3.7002  -27.9381 O   0  0  0  0  0  0
   -5.8124    3.4638  -21.5308 H   0  0  0  0  0  0
   -6.1156    3.7275  -23.8462 H   0  0  0  0  0  0
    7.0530    3.0667  -20.5081 H   0  0  0  0  0  0
    5.8038    4.0641  -21.3272 H   0  0  0  0  0  0
    6.0817    4.3102  -23.8253 H   0  0  0  0  0  0
    6.3138    2.7810  -24.7388 H   0  0  0  0  0  0
   -5.2945    3.7181  -26.0432 H   0  0  0  0  0  0
    5.5925    6.9245  -22.9429 H   0  0  0  0  0  0
    5.1086    6.8233  -21.2160 H   0  0  0  0  0  0
    4.4319    0.8381  -24.1654 H   0  0  0  0  0  0
    3.2140    1.3520  -22.9492 H   0  0  0  0  0  0
    4.9515   -0.0276  -21.8822 H   0  0  0  0  0  0
    7.8659    2.9503  -22.7875 H   0  0  0  0  0  0
    5.4398    1.4760  -19.9962 H   0  0  0  0  0  0
    4.1942    2.4652  -20.8310 H   0  0  0  0  0  0
   -1.2546    3.5878  -26.7959 H   0  0  0  0  0  0
    3.6358    8.9181  -20.5930 H   0  0  0  0  0  0
    5.1084    9.7629  -20.0061 H   0  0  0  0  0  0
    3.0695   11.2915  -21.1334 H   0  0  0  0  0  0
    2.9829   10.0757  -23.2939 H   0  0  0  0  0  0
    4.1165   11.4263  -23.6365 H   0  0  0  0  0  0
    6.3560   11.2501  -23.3219 H   0  0  0  0  0  0
    6.3669   10.2258  -24.7975 H   0  0  0  0  0  0
    7.5785    8.4919  -23.7415 H   0  0  0  0  0  0
    8.3227    9.9686  -23.0400 H   0  0  0  0  0  0
    7.0089    9.7943  -20.9841 H   0  0  0  0  0  0
    7.2424    8.0518  -21.3529 H   0  0  0  0  0  0
    0.6096    2.1906  -20.7977 H   0  0  0  0  0  0
    7.2783    0.7227  -21.8747 H   0  0  0  0  0  0
   -4.6042    3.7617  -28.3046 H   0  0  0  0  0  0
    4.0960    5.0664  -23.0935 N   0  0  0  0  0  0
    1.8370    5.9947  -23.1794 N   0  0  0  0  0  0
    0.0461    4.6944  -23.9341 N   0  0  0  0  0  0
    0.4810    2.4707  -24.6651 N   0  0  0  0  0  0
    1.7800    2.5748  -24.3340 N   0  0  0  0  0  0
    2.2393    3.7014  -23.8350 C   0  0  0  0  0  0
    1.3563    4.8076  -23.6419 C   0  0  0  0  0  0
    3.6197    3.8909  -23.5025 C   0  0  0  0  0  0
    3.1602    6.0454  -22.9558 C   0  0  0  0  0  0
   -0.3261    3.5053  -24.4576 C   0  0  0  0  0  0
    6.7182    0.7603  -23.5810 H   0  0  0  0  0  0
    4.7438    8.8261  -24.0143 H   0  0  0  0  0  0
  1  2  2  0  0  0
  1  3  1  0  0  0
  1 34  1  0  0  0
  2  6  1  0  0  0
  2 35  1  0  0  0
  3  5  2  0  0  0
  3 28  1  0  0  0
  4  5  1  0  0  0
  4  6  2  0  0  0
  4 11  1  0  0  0
  5 25  1  0  0  0
  6 10  1  0  0  0
  7 10  2  0  0  0
  7 17  1  0  0  0
  7 33  1  0  0  0
  8 15  1  0  0  0
  8 16  1  0  0  0
  8 36  1  0  0  0
  8 37  1  0  0  0
  9 15  1  0  0  0
  9 29  1  0  0  0
  9 38  1  0  0  0
  9 39  1  0  0  0
 10 40  1  0  0  0
 11 17  2  0  0  0
 11 73  1  0  0  0
 12 18  1  0  0  0
 12 32  1  0  0  0
 12 41  1  0  0  0
 12 42  1  0  0  0
 13 14  1  0  0  0
 13 29  1  0  0  0
 13 43  1  0  0  0
 13 44  1  0  0  0
 14 16  1  0  0  0
 14 30  1  0  0  0
 14 45  1  0  0  0
 15 30  1  0  0  0
 15 46  1  0  0  0
 16 47  1  0  0  0
 16 48  1  0  0  0
 17 49  1  0  0  0
 18 19  1  0  0  0
 18 24  1  0  0  0
 18 31  1  0  0  0
 19 20  1  0  0  0
 19 50  1  0  0  0
 19 51  1  0  0  0
 20 21  1  0  0  0
 20 27  1  0  0  0
 20 52  1  0  0  0
 21 31  1  0  0  0
 21 53  1  0  0  0
 21 54  1  0  0  0
 22 23  1  0  0  0
 22 31  1  0  0  0
 22 55  1  0  0  0
 22 56  1  0  0  0
 23 24  1  0  0  0
 23 57  1  0  0  0
 23 58  1  0  0  0
 24 59  1  0  0  0
 24 60  1  0  0  0
 25 26  3  0  0  0
 26 61  1  0  0  0
 29 71  1  0  0  0
 30 62  1  0  0  0
 30 74  1  0  0  0
 31 75  1  0  0  0
 32 72  1  0  0  0
 33 63  1  0  0  0
 64 71  1  0  0  0
 64 72  2  0  0  0
 65 70  2  0  0  0
 65 72  1  0  0  0
 66 70  1  0  0  0
 66 73  2  0  0  0
 67 68  2  0  0  0
 67 73  1  0  0  0
 68 69  1  0  0  0
 69 70  1  0  0  0
 69 71  2  0  0  0
M  CHG  2  30   1  31   1
M  END
> <s_m_entry_id>
19

> <s_m_entry_name>
Mirati-central-6-6-ring-fragments.50

> <s_m_Source_Path>
/home/julia/Documents/BSC/pc_bsc/julia/results/KRAS/rescore_fragments_KRAS_Soumya/glide-dock_SP_rescore_Mirati_central-6-6

> <s_m_Source_File>
glide-dock_SP_rescore_Mirati_central-6-6_pv.maegz

> <i_m_Source_File_Index>
19

> <s_m_job_name>
epik_central-6-6

> <s_epik_input>
W0NIXSNDYzFjKEYpW2NIXVtjSF1jKGMxMilbY0hdYyhbT0hdKVtjSF1jMi1jKG5uMyluYyhjMzQpbmMoT1tDSDJdW0NAQF01Nk4oW0NIMl1bQ0BIXShGKVtDSDJdNSlbQ0gyXVtDSDJdW0NIMl02KW5jNE4oW0NIMl1bQ0BIXTc4KVtDSDJdW0NASF0oW05IXTgpW0NIMl1bQ0gyXTc=

> <s_epik_cmdline>
J2VwaWtfYXBwJywgJy1pbWFlJywgJy9zaGFyZWQvd29yay9sZGlhei9HTV9TdXBlcmx1bWluYWwvS1JBU19HMTJEL2VwaWtfY2VudHJhbC02LTYvZXBpa19jZW50cmFsLTYtNi5tYWVneicsICctb21hZScsICdlcGlrX2NlbnRyYWwtNi02LW91dC5tYWVneicsICctbnQnLCAnLW1zJywgJzEnLCAnLXBoJywgJzYuOTAnLCAnLXBodCcsICcwLjUwJywgJy1zJywgJ3dhdGVyJw==

> <r_epik_Ionization_Penalty>
  0.0558

> <r_epik_Ionization_Penalty_Charging>
  0.0523

> <r_epik_Ionization_Penalty_Neutral>
  0.0035

> <r_epik_State_Penalty>
  0.0000

> <r_epik_Charging_Adjusted_Penalty>
0.0523342448120783

> <i_epik_Tot_Q>
2

> <i_epik_Tot_abs_Q>
2

> <r_lp_tautomer_probability>
1

> <MW_cresset>
585

> <#Atoms_cresset>
43

> <SlogP_cresset>
3.7

> <TPSA_cresset>
112

> <Rof5_cresset>
1

> <_cresset_fieldpoints>
    -5      -0.950227       6.354620     -23.374737    -10.7350
    -5       0.604316       0.663031     -25.106785     -6.9442
    -5       0.541726       7.438369     -23.036715    -10.8519
    -5       5.435682      13.768032     -23.374590     -2.9887
    -5       7.712288      12.420895     -21.347425     -2.8294
    -5       4.067780       8.299006     -24.855993     -8.3908
    -5       3.858300      14.351650     -20.418280     -2.8159
    -5       6.965856       0.273200     -24.420641     -4.4399
    -5      -2.361278       5.110755     -28.971672     -3.5051
    -6      -6.328686       3.819810     -27.960461      8.3987
    -6      -7.374016       3.840167     -25.838831      6.2051
    -6       7.769441       5.776049     -22.309359      3.7559
    -6       2.324156       0.653683     -20.641314      2.6877
    -6       8.336342      -0.013008     -21.098728      8.2412
    -7      -8.405230       3.454041     -22.401674     -1.0308
    -7      -3.644367       0.225079     -23.799219     -2.5043
    -7       2.392354       4.224758     -20.317625     -2.8273
    -7       7.865192       5.784307     -22.444504     -3.2004
    -7       8.031740       0.477812     -20.074911     -1.9173
    -7       6.139041       7.483738     -18.872873     -2.0005
    -7       4.611426       7.954756     -25.309553     -3.0079
    -7       6.984982       0.125997     -24.906870     -1.9965
    -7       4.016865       2.326764     -26.428461     -2.0937
    -7       2.305237       0.352754     -20.657478     -2.1774
    -7       3.188553      11.163061     -18.344538     -1.3399
    -7      -1.548328       6.251048     -22.697950     -2.9695
    -7       1.274642       8.566446     -21.846277     -2.5611
    -7       2.111711      13.263603     -22.846052     -1.2945
    -7       5.499565      13.543989     -24.174805     -1.5038
    -7       8.159212      12.224123     -21.511457     -1.9353
    -7       6.932365      11.201576     -18.821669     -1.5305
    -7       3.575562       4.859751     -20.030970     -2.8109
    -7       0.791560       0.470217     -23.560957     -2.8754
    -7      -0.813094       0.309096     -23.933371     -2.4885
    -7      -5.144497       6.028497     -27.992609     -1.2378
    -7      -5.392385       1.553593     -28.170996     -1.2397
    -7      -1.655752       4.031564     -29.488092     -1.1828
    -7       1.669846       1.998963     -26.659132     -2.0691
    -8      -3.905555       3.376078     -22.985857      7.1526
    -8      -3.052001       3.522826     -25.189997      6.9958
    -8       6.635187       9.428522     -22.434565      5.3412
    -8       4.558014      10.432507     -21.588518      5.6550
    -8       5.643012       9.449816     -21.255384      5.1932
    -8       2.456707       4.265200     -23.279945      2.8565
    -8       5.649005       2.404180     -21.719896      5.1221

> <s_i_glide_gridfile>
glide-grid_7RPZ_constraints

> <i_i_glide_lignum>
50

> <i_i_glide_rotatable_bonds>
7

> <r_i_docking_score>
-12.0054409187834

> <r_i_glide_ligand_efficiency>
-0.279196300436823

> <r_i_glide_ligand_efficiency_sa>
-0.978135776191194

> <r_i_glide_ligand_efficiency_ln>
-2.52151571600862

> <r_i_glide_gscore>
-12.0054409187834

> <r_i_glide_lipo>
-3.74845406984242

> <r_i_glide_hbond>
-0.868420277075304

> <r_i_glide_metal>
0

> <r_i_glide_rewards>
-0.794677746155045

> <r_i_glide_evdw>
-64.5171813964844

> <r_i_glide_ecoul>
-22.2037525177002

> <r_i_glide_erotb>
0.259552609962556

> <r_i_glide_esite>
-0.297019488193924

> <r_i_glide_emodel>
0

> <r_i_glide_energy>
-86.7209339141846

> <r_i_glide_einternal>
0

> <i_i_glide_confnum>
1

> <i_i_glide_posenum>
1

> <r_i_glide_eff_state_penalty>
0

> <Total Formal Charge>
0

> <Setting>
[Custom]

> <rmsDist>
0.1

> <rmsAng>
3.2

> <Frag ID>
2872543

> <Attachment Point 1 Type>
Car

> <Attachment Point 2 Type>
Car

> <Attachment Point 3 Type>
Car

> <Unstable>
false

> <Database>
UltraRare

> <Attachment Types>
Ntri,Osp3|Csp3,Car,Osp3|Ntri,S

> <Frequency>
4

> <Parent Title>
31748675

> <TorsFreq Frag>


> <Strain 1>
0

> <TorsFreq 1>
High

> <Strain 2>
1.1

> <TorsFreq 2>
High

> <Strain 3>
2.2

> <TorsFreq 3>
High

> <BIF>
0.614

> <Cluster SMILES>
[Fm]c1nc([Es])c2c(n1)nc([Cf])nn2

> <Cluster Number>
16

> <Rank>
49

> <Favorite_cresset>
false

> <BIF%>
61

> <Score>
0.931

> <Field Score>
0.876

> <Shape Score>
0.986

> <Docking Score>
0

> <Flexibility_cresset>
5.5

> <#RB_cresset>
6

> <Radial Plot_cresset>
0.37

> <2D Sim_cresset>
0.804

> <Fragment SMILES>
[Fm]c1nc([Es])c2c(n1)nc([Cf])nn2

> <Parent Aux1>
https://www.emolecules.com/search/#?query=31748675&querytype=emoleculesid

> <s_m_subgroup_title>
glide-dock_SP_rescore_Mirati_central-6-6_pv

> <s_m_subgroupid>
glide-dock_SP_rescore_Mirati_central-6-6_pv

> <b_m_subgroup_collapsed>
0

$$$$
